863

  C   -13.916   18.623   -5.073
  C   -14.616   18.692   -3.713
  C   -14.547   20.095   -3.072
  C   -13.085   20.460   -3.017
  C   -12.396   20.374   -4.439
  C   -10.865   20.701   -4.534
  O   -15.965   18.315   -3.774
  O   -15.145   19.958   -1.738
  O   -12.519   19.497   -2.064
  O   -12.573   19.041   -4.984
  O   -10.517   21.050   -5.854
  H    -9.539   21.255   -5.898
  H   -16.370   18.379   -2.862
  H   -10.653   21.465   -3.925
  H   -10.339   19.897   -4.256
  H   -13.942   17.680   -5.404
  H   -14.399   19.216   -5.718
  H   -14.150   18.055   -3.099
  H   -15.056   20.759   -3.620
  H   -12.986   21.386   -2.654
  H   -12.876   21.010   -5.043
  C   -12.087   20.122   -0.897
  C   -11.754   19.075    0.148
  C   -10.963   19.798    1.261
  C    -9.717   20.510    0.713
  C   -10.156   21.509   -0.363
  C    -9.032   22.220   -1.058
  C   -13.422   17.277    0.458
  C   -14.796   16.952    0.943
  N   -13.044   18.542    0.528
  O   -10.538   18.798    2.220
  O    -8.746   19.627    0.197
  O   -10.925   20.824   -1.320
  O    -9.617   23.184   -1.920
  O   -12.710   16.406    0.008
  H   -10.161   23.827   -1.381
  H    -7.965   20.152   -0.142
  H   -13.716   19.195    0.878
  H   -15.237   17.785    1.278
  H   -15.333   16.570    0.191
  H   -14.738   16.284    1.685
  H    -8.445   22.672   -0.386
  H    -8.491   21.568   -1.589
  H   -12.781   20.756   -0.556
  H    -9.300   21.025    1.462
  H   -11.556   20.464    1.714
  H   -10.739   22.197    0.070
  H   -11.192   18.354   -0.257
  C   -10.884   19.034    3.591
  C   -10.682   17.799    4.397
  C   -10.997   18.049    5.892
  C   -10.176   19.259    6.359
  C   -10.382   20.468    5.476
  C    -9.572   21.676    5.768
  O   -11.560   16.850    3.876
  O   -10.681   16.871    6.629
  O    -8.828   18.932    6.264
  O   -10.100   20.088    4.143
  O    -9.810   22.617    4.770
  H    -9.155   22.487    4.026
  H   -11.345   16.691    2.912
  H   -10.880   17.020    7.597
  H    -8.405   18.996    7.168
  H    -9.835   22.052    6.656
  H    -8.601   21.436    5.782
  H   -11.849   19.293    3.638
  H    -9.740   17.480    4.298
  H   -11.971   18.251    5.995
  H   -10.407   19.484    7.306
  H   -11.347   20.725    5.526
  C   -16.015   20.474    0.355
  C   -15.777   21.079   -1.104
  C   -17.130   21.411   -1.830
  C   -17.935   22.444   -0.957
  C   -17.062   23.760   -0.793
  C   -15.641   23.396   -0.242
  C   -14.646   24.582   -0.249
  C   -13.194   24.133    0.022
  C   -12.386   25.410    0.032
  C   -17.685   26.029   -0.002
  C   -18.449   26.787    1.098
  N   -17.716   24.704    0.128
  O   -15.145   20.563    1.258
  O   -17.088   19.885    0.613
  O   -19.255   22.752   -1.498
  O   -15.054   22.336   -1.038
  O   -14.637   25.303   -1.491
  O   -13.009   23.365    1.200
  O   -11.143   25.161    0.588
  O   -17.114   26.627   -0.914
  H   -10.808   25.988    1.040
  H   -13.562   22.534    1.146
  H   -19.714   23.410   -0.902
  H   -15.359   25.995   -1.480
  H   -18.218   24.324    0.905
  H   -18.841   26.132    1.743
  H   -17.820   27.396    1.582
  H   -19.182   27.326    0.684
  H   -12.273   25.741   -0.905
  H   -12.862   26.102    0.575
  H   -16.941   21.806   -2.729
  H   -17.666   20.574   -1.940
  H   -12.891   23.582   -0.756
  H   -18.061   22.045   -0.049
  H   -14.915   25.216    0.476
  H   -15.739   23.070    0.698
  H   -16.961   24.196   -1.687
  N   -22.645   23.399    4.878
  C   -22.104   23.678    3.548
  C   -20.894   22.834    3.259
  O   -20.362   22.866    2.165
  C   -21.706   25.143    3.417
  C   -22.794   26.008    2.884
  C   -22.582   27.445    3.236
  O   -21.661   28.080    2.686
  O   -23.339   27.939    4.086
  H   -22.391   23.984    5.648
  H   -22.807   23.475    2.867
  H   -20.922   25.204    2.800
  H   -21.446   25.482    4.321
  H   -23.666   25.706    3.269
  H   -22.820   25.919    1.888
  N   -20.435   22.077    4.236
  C   -19.246   21.292    3.993
  C   -19.448   19.804    4.014
  O   -20.383   19.280    4.629
  C   -18.111   21.695    4.953
  C   -17.628   23.090    4.695
  C   -18.267   24.181    5.288
  C   -16.602   23.335    3.789
  C   -17.914   25.480    4.977
  C   -16.238   24.634    3.472
  C   -16.908   25.709    4.072
  O   -16.595   27.018    3.755
  H   -20.897   22.047    5.122
  H   -18.935   21.524    3.071
  H   -17.347   21.061    4.834
  H   -18.447   21.638    5.893
  H   -18.996   24.018    5.953
  H   -16.123   22.568    3.363
  H   -18.388   26.248    5.408
  H   -15.501   24.804    2.818
  H   -15.866   27.213    3.099
  N   -18.565   19.155    3.243
  C   -18.483   17.704    3.144
  C   -17.711   17.170    4.322
  O   -16.678   17.734    4.698
  C   -17.840   17.201    1.853
  C   -18.825   16.826    0.820
  N   -18.665   15.653    0.135
  C   -20.014   17.325    0.394
  C   -19.680   15.434   -0.675
  N   -20.529   16.452   -0.536
  H   -17.923   19.700    2.703
  H   -19.412   17.337    3.191
  H   -17.283   16.399    2.067
  H   -17.255   17.925    1.486
  H   -20.440   18.176    0.702
  H   -19.793   14.648   -1.283
  H   -21.394   16.562   -1.025
  N   -18.222   16.094    4.913
  C   -17.568   15.404    6.022
  C   -17.569   16.191    7.319
  O   -16.723   15.957    8.183
  C   -16.117   15.025    5.654
  C   -16.031   14.185    4.384
  O   -16.651   13.130    4.277
  N   -15.259   14.654    3.421
  H   -19.097   15.740    4.582
  H   -18.069   14.554    6.185
  H   -15.721   14.503    6.410
  H   -15.592   15.865    5.518
  H   -14.771   15.517    3.547
  H   -15.163   14.146    2.565
  N    -5.946   21.448   12.932
  C    -4.944   20.807   12.093
  C    -3.704   21.602   11.799
  O    -3.708   22.835   11.807
  C    -5.545   20.429   10.742
  C    -6.718   19.496   10.813
  C    -7.104   19.004    9.443
  O    -7.686   19.790    8.666
  O    -6.789   17.840    9.133
  H    -6.875   21.560   12.580
  H    -4.663   19.962   12.548
  H    -4.831   19.990   10.196
  H    -5.843   21.269   10.288
  H    -7.495   19.978   11.218
  H    -6.478   18.712   11.386
  N    -4.355   20.658    2.212
  C    -5.807   20.761    2.356
  C    -6.274   22.149    2.767
  O    -7.410   22.297    3.205
  C    -6.347   19.759    3.390
  C    -5.321   18.884    4.113
  C    -4.537   19.601    5.213
  O    -3.641   20.404    4.934
  N    -4.852   19.289    6.464
  H    -3.847   20.078    2.849
  H    -6.221   20.545    1.472
  H    -6.982   19.149    2.916
  H    -6.842   20.280    4.085
  H    -4.669   18.544    3.436
  H    -5.805   18.113    4.527
  H    -5.585   18.633    6.646
  H    -4.357   19.709    7.224
  N    -5.405   23.155    2.659
  C    -5.761   24.514    3.055
  C    -5.466   25.548    1.992
  O    -4.363   25.592    1.457
  C    -5.007   24.930    4.328
  C    -5.344   24.107    5.533
  N    -4.450   23.237    6.113
  C    -6.478   24.021    6.259
  C    -5.019   22.650    7.152
  N    -6.251   23.108    7.261
  H    -4.490   22.974    2.299
  H    -6.741   24.537    3.250
  H    -5.229   25.884    4.527
  H    -4.026   24.845    4.154
  H    -7.325   24.527    6.098
  H    -4.589   21.975    7.752
  H    -6.913   22.835    7.959
  N    -6.444   26.401    1.706
  C    -6.238   27.464    0.741
  C    -5.600   28.638    1.450
  O    -5.636   28.730    2.676
  C    -7.532   27.887    0.001
  C    -8.738   27.884    0.936
  C    -7.768   26.970   -1.188
  C   -10.027   28.273    0.248
  H    -7.330   26.309    2.160
  H    -5.589   27.132    0.056
  H    -7.405   28.818   -0.343
  H    -8.566   28.532    1.678
  H    -8.845   26.964    1.314
  H    -8.604   27.247   -1.662
  H    -6.992   27.032   -1.816
  H    -7.863   26.027   -0.868
  H   -10.777   28.253    0.909
  H    -9.939   29.195   -0.128
  H   -10.218   27.628   -0.492
  N    -7.324   30.359    4.355
  C    -7.503   29.679    5.617
  C    -6.307   29.852    6.536
  O    -6.394   29.572    7.729
  C    -7.721   28.205    5.388
  C    -9.045   27.895    4.825
  C    -9.204   26.427    4.678
  O    -8.619   25.819    3.782
  N    -9.931   25.819    5.594
  H    -7.056   29.843    3.541
  H    -8.311   30.055    6.070
  H    -7.629   27.730    6.263
  H    -7.021   27.875    4.755
  H    -9.133   28.329    3.928
  H    -9.755   28.245    5.436
  H   -10.389   26.353    6.304
  H   -10.024   24.823    5.579
  N   -14.764   18.513   11.226
  C   -14.582   17.583   10.113
  C   -14.356   16.219   10.775
  O   -13.523   16.081   11.682
  C   -13.370   17.966    9.259
  C   -13.644   19.018    8.219
  C   -14.437   18.885    7.108
  C   -13.109   20.354    8.152
  N   -14.423   20.046    6.365
  C   -13.613   20.962    6.992
  C   -12.238   21.088    8.991
  C   -13.291   22.281    6.621
  C   -11.912   22.410    8.622
  C   -12.442   22.986    7.450
  H   -13.972   19.027   11.556
  H   -15.407   17.558    9.548
  H   -13.045   17.143    8.792
  H   -12.655   18.309    9.868
  H   -14.953   18.062    6.870
  H   -14.920   20.197    5.511
  H   -11.863   20.680    9.824
  H   -13.663   22.692    5.789
  H   -11.296   22.946    9.200
  H   -12.198   23.926    7.214
  N   -13.491   13.334    9.140
  C   -12.630   12.456    8.357
  C   -11.197   12.550    8.905
  O   -10.227   12.197    8.234
  C   -12.683   12.832    6.868
  C   -12.255   14.254    6.605
  O   -12.599   15.169    7.351
  N   -11.512   14.458    5.527
  H   -13.539   14.307    8.912
  H   -12.952   11.515    8.462
  H   -13.622   12.716    6.543
  H   -12.077   12.218    6.362
  H   -11.253   13.687    4.945
  H   -11.210   15.383    5.295
  N   -11.082   13.066   10.123
  C    -9.803   13.221   10.809
  C    -9.939   12.756   12.250
  O   -11.060   12.655   12.778
  C    -9.346   14.675   10.796
  C    -8.239   14.939    9.816
  C    -8.776   15.150    8.424
  C    -7.645   15.179    7.419
  N    -7.849   16.263    6.423
  H   -11.913   13.363   10.594
  H    -9.116   12.659   10.349
  H    -9.024   14.915   11.712
  H   -10.127   15.251   10.556
  H    -7.617   14.156    9.809
  H    -7.741   15.758   10.100
  H    -9.269   16.019    8.390
  H    -9.400   14.403    8.195
  H    -7.607   14.300    6.943
  H    -6.783   15.335    7.901
  H    -7.419   17.104    6.752
  H    -7.437   15.997    5.552
  H    -8.829   16.418    6.295
  O    -8.383   22.369    9.087
  H    -8.125   21.415    8.931
  H    -9.277   22.462    8.648
  O   -12.569   23.948    3.932
  H   -12.725   23.742    2.966
  H   -11.702   23.499    4.147
  O    -9.766   23.556    2.146
  H    -9.386   24.306    2.688
  H   -10.490   23.981    1.603
  N   -12.908   26.852    4.489
  C   -12.536   27.394    3.188
  C   -13.588   28.257    2.543
  O   -14.705   27.815    2.321
  H   -12.718   25.887    4.672
  H   -12.342   26.628    2.575
  H   -11.710   27.945    3.305
  N   -13.212   29.498    2.246
  C   -14.107   30.505    1.642
  C   -15.227   31.052    2.541
  O   -16.022   31.902    2.116
  C   -14.631   30.036    0.280
  C   -13.576   30.242   -0.793
  C   -13.874   29.543   -2.095
  C   -12.776   29.863   -3.102
  N   -13.247   30.629   -4.309
  H   -12.269   29.764    2.443
  H   -13.522   31.291    1.442
  H   -15.449   30.561    0.043
  H   -14.862   29.064    0.333
  H   -12.704   29.898   -0.445
  H   -13.500   31.223   -0.974
  H   -14.754   29.858   -2.449
  H   -13.910   28.555   -1.943
  H   -12.377   29.001   -3.414
  H   -12.076   30.407   -2.640
  H   -12.473   30.799   -4.919
  H   -13.941   30.095   -4.792
  H   -13.640   31.501   -4.018
  N   -15.194   30.652    3.809
  C   -16.157   31.090    4.809
  C   -15.377   31.455    6.082
  O   -15.700   31.017    7.185
  C   -17.169   29.982    5.073
  C   -18.566   30.510    5.286
  C   -19.603   29.676    4.555
  N   -19.428   29.674    3.101
  C   -19.723   30.690    2.292
  N   -20.213   31.819    2.778
  N   -19.541   30.570    0.984
  H   -14.472   30.019    4.089
  H   -16.636   31.901    4.472
  H   -16.888   29.480    5.891
  H   -17.177   29.362    4.288
  H   -18.611   31.450    4.949
  H   -18.771   30.496    6.265
  H   -20.510   30.042    4.765
  H   -19.540   28.733    4.883
  H   -19.058   28.845    2.683
  H   -20.431   32.576    2.162
  H   -20.365   31.916    3.762
  H   -19.762   31.333    0.376
  H   -19.182   29.717    0.605
  N   -25.144   33.807    2.330
  C   -24.133   33.747    3.424
  C   -24.770   33.157    4.694
  O   -25.893   33.509    5.056
  C   -23.583   35.173    3.724
  O   -23.242   35.817    2.492
  C   -22.348   35.111    4.600
  H   -25.265   33.026    1.718
  H   -23.376   33.160    3.136
  H   -24.289   35.707    4.189
  H   -23.837   35.478    1.763
  H   -22.017   36.038    4.776
  H   -22.576   34.668    5.467
  H   -21.635   34.586    4.135
  N   -24.080   32.208    5.351
  C   -24.583   31.575    6.581
  C   -24.983   32.603    7.632
  O   -24.406   33.683    7.708
  C   -23.380   30.763    7.060
  C   -22.738   30.359    5.803
  C   -22.806   31.598    4.932
  H   -25.352   30.970    6.373
  H   -22.765   31.324    7.615
  H   -23.671   29.965    7.588
  H   -21.788   30.089    5.961
  H   -23.234   29.601    5.380
  H   -22.035   32.210    5.112
  H   -22.822   31.358    3.961
  H   -25.763   32.284    8.331
  N   -25.707   26.209    9.827
  C   -25.865   26.364    8.393
  C   -24.510   26.401    7.714
  O   -24.354   25.874    6.622
  C   -26.656   27.627    8.068
  C   -28.041   27.616    8.681
  O   -28.493   26.550    9.170
  O   -28.666   28.693    8.696
  H   -25.953   26.961   10.439
  H   -26.372   25.576    8.044
  H   -26.745   27.703    7.075
  H   -26.156   28.418    8.419
  H   -25.352   25.350   10.207
  N   -23.534   27.028    8.360
  C   -22.181   27.106    7.818
  C   -21.614   25.691    7.727
  O   -21.037   25.298    6.709
  C   -21.298   27.972    8.729
  C   -19.876   28.260    8.251
  C   -19.400   29.594    8.809
  C   -18.961   27.121    8.659
  H   -23.731   27.458    9.241
  H   -22.212   27.511    6.904
  H   -21.231   27.508    9.612
  H   -21.759   28.851    8.848
  H   -19.883   28.319    7.253
  H   -18.469   29.775    8.492
  H   -20.007   30.323    8.493
  H   -19.411   29.560    9.808
  H   -18.031   27.312    8.345
  H   -18.965   27.031    9.655
  H   -19.284   26.270    8.246
  N   -21.805   24.930    8.795
  C   -21.339   23.563    8.862
  C   -21.970   22.695    7.769
  O   -21.283   21.886    7.136
  C   -21.644   22.977   10.229
  S   -20.469   21.665   10.686
  H   -22.288   25.314    9.582
  H   -20.347   23.561    8.733
  H   -22.567   22.594   10.217
  H   -21.595   23.706   10.911
  N   -23.264   22.894    7.530
  C   -23.991   22.144    6.508
  C   -23.470   22.376    5.073
  O   -23.811   21.636    4.145
  C   -25.478   22.456    6.594
  H   -23.755   23.579    8.068
  H   -23.877   21.172    6.713
  H   -25.968   21.939    5.892
  H   -25.821   22.199    7.497
  H   -25.622   23.435    6.449
  N   -18.494   17.130    7.460
  C   -18.564   17.925    8.671
  C   -19.626   17.393    9.625
  O   -20.422   16.530    9.271
  C   -18.776   19.410    8.355
  O   -19.694   19.558    7.271
  C   -17.479   20.032    7.960
  H   -19.151   17.292    6.723
  H   -17.681   17.842    9.133
  H   -19.137   19.875    9.164
  H   -20.194   20.418    7.373
  H   -17.622   21.000    7.755
  H   -16.825   19.944    8.711
  H   -17.121   19.569    7.149
  H   -19.594   17.789   10.646
  N     0.390   22.305   15.969
  C    -1.041   22.200   16.168
  C    -1.441   22.518   17.600
  O    -0.580   22.774   18.439
  C    -1.448   20.765   15.859
  C    -0.727   19.735   16.738
  S    -0.923   18.004   16.214
  C    -2.570   17.651   16.815
  H     1.001   22.050   16.718
  H    -1.512   22.823   15.543
  H    -1.234   20.572   14.901
  H    -2.433   20.675   16.005
  H    -1.082   19.819   17.669
  H     0.249   19.952   16.733
  H    -2.812   16.707   16.589
  H    -2.596   17.773   17.807
  H    -3.223   18.275   16.385
  H     0.790   22.625   15.106
  H    -2.519   22.511   17.813
  N    -8.934   18.874   17.366
  C    -7.672   19.470   17.011
  C    -7.893   20.604   16.033
  O    -8.982   20.754   15.460
  C    -6.778   18.423   16.323
  C    -7.282   18.033   14.911
  C    -6.263   17.253   14.095
  O    -5.243   17.794   13.676
  N    -6.532   15.976   13.878
  H    -9.561   18.567   16.650
  H    -7.218   19.815   17.832
  H    -6.754   17.601   16.892
  H    -5.854   18.797   16.240
  H    -7.511   18.870   14.414
  H    -8.103   17.471   15.012
  H    -7.374   15.574   14.237
  H    -5.893   15.412   13.355
  H    -9.182   18.768   18.324
  N    -6.868   21.435   15.921
  C    -6.824   22.491   14.934
  C    -5.662   21.887   14.148
  O    -4.561   21.712   14.681
  C    -6.423   23.879   15.497
  C    -6.468   24.914   14.369
  C    -7.364   24.304   16.604
  H    -6.093   21.328   16.544
  H    -7.663   22.534   14.391
  H    -5.492   23.829   15.859
  H    -6.210   25.811   14.729
  H    -5.829   24.648   13.647
  H    -7.394   24.959   13.995
  H    -7.087   25.200   16.951
  H    -8.296   24.359   16.246
  H    -7.330   23.634   17.346
  N    -2.648   20.870   11.463
  C    -1.391   21.470   11.061
  C    -1.721   22.074    9.679
  O    -2.534   21.514    8.930
  C    -0.304   20.350   10.894
  C     0.975   20.908   10.288
  C    -0.014   19.691   12.223
  H    -2.722   19.873   11.488
  H    -1.097   22.173   11.708
  H    -0.666   19.654   10.273
  H     1.647   20.174   10.194
  H     0.776   21.295    9.388
  H     1.342   21.622   10.884
  H     0.679   18.981   12.099
  H     0.323   20.377   12.869
  H    -0.852   19.279   12.581
  N    -1.208   23.275    9.376
  C    -1.501   23.865    8.062
  C    -0.849   23.037    6.955
  O     0.239   22.492    7.148
  C    -0.868   25.254    8.164
  C    -1.003   25.561    9.624
  C    -0.582   24.265   10.264
  H    -2.488   23.935    7.917
  H     0.092   25.236    7.885
  H    -1.364   25.920    7.607
  H    -0.399   26.311    9.894
  H    -1.947   25.792    9.860
  H     0.413   24.169   10.272
  H    -0.932   24.189   11.198
  N    -1.492   22.977    5.789
  C    -0.956   22.185    4.692
  C    -1.726   22.241    3.379
  O    -2.511   23.167    3.142
  H    -2.348   23.479    5.667
  H    -0.930   21.231    4.990
  H    -0.025   22.503    4.513
  N    -1.527   21.217    2.548
  C    -2.167   21.107    1.237
  C    -3.684   21.309    1.262
  O    -4.225   22.065    0.456
  C    -1.825   19.756    0.591
  O    -2.230   18.664    1.407
  H    -0.908   20.486    2.836
  H    -1.780   21.822    0.655
  H    -0.836   19.706    0.450
  H    -2.291   19.692   -0.291
  H    -1.992   17.804    0.955
  N    -5.018   29.535    0.673
  C    -4.315   30.691    1.218
  C    -5.105   31.577    2.164
  O    -4.521   32.291    2.964
  C    -3.706   31.510    0.080
  C    -2.717   30.696   -0.759
  O    -2.120   29.731   -0.216
  O    -2.542   31.012   -1.960
  H    -5.061   29.417   -0.319
  H    -3.547   30.330    1.747
  H    -3.226   32.295    0.471
  H    -4.443   31.832   -0.514
  N    -6.429   31.513    2.069
  C    -7.309   32.310    2.914
  C    -7.515   31.664    4.279
  O    -7.864   32.324    5.247
  C    -8.654   32.500    2.213
  O    -9.241   31.260    1.849
  H    -6.835   30.897    1.394
  H    -6.891   33.209    3.048
  H    -8.514   33.046    1.387
  H    -9.275   32.983    2.830
  H   -10.128   31.166    2.301
  N    -5.192   30.283    5.965
  C    -3.963   30.465    6.714
  C    -4.065   31.368    7.937
  O    -3.770   30.947    9.059
  C    -2.850   30.921    5.769
  C    -2.035   29.758    5.203
  C    -2.902   28.574    4.755
  C    -2.049   27.489    4.086
  N    -1.340   27.988    2.847
  H    -5.198   30.489    4.987
  H    -3.698   29.561    7.050
  H    -2.234   31.528    6.271
  H    -3.263   31.421    5.008
  H    -1.403   29.440    5.909
  H    -1.516   30.088    4.415
  H    -3.587   28.899    4.103
  H    -3.360   28.184    5.554
  H    -2.644   26.727    3.830
  H    -1.364   27.171    4.741
  H    -0.445   28.355    3.100
  H    -1.221   27.232    2.204
  H    -1.886   28.708    2.418
  H    -4.427   32.384    7.764
  N    -6.755   32.373    9.220
  C    -7.885   31.856    9.994
  C    -7.486   30.731   10.945
  O    -8.036   30.618   12.044
  C    -9.023   31.414    9.055
  H    -6.739   32.216    8.233
  H    -8.234   32.609   10.552
  H    -9.786   31.064    9.598
  H    -9.331   32.196    8.513
  H    -8.691   30.695    8.444
  H    -5.993   32.881    9.640
  N    -6.548   29.886   10.524
  C    -6.061   28.801   11.372
  C    -5.335   29.415   12.582
  O    -5.532   28.986   13.718
  C    -5.104   27.842   10.589
  C    -5.918   27.008    9.599
  C    -4.339   26.913   11.562
  C    -5.078   26.172    8.694
  H    -6.168   29.996    9.606
  H    -6.845   28.274   11.701
  H    -4.442   28.392   10.080
  H    -6.466   27.628    9.038
  H    -6.523   26.404   10.117
  H    -3.735   26.310   11.041
  H    -3.795   27.466   12.193
  H    -4.993   26.362   12.081
  H    -5.669   25.654    8.075
  H    -4.473   26.763    8.161
  H    -4.530   25.538    9.239
  H    -4.658   30.251   12.364
  N   -17.156   20.442   13.135
  C   -15.957   19.648   13.022
  C   -15.939   18.704   11.817
  O   -16.980   18.229   11.393
  C   -15.843   18.857   14.346
  C   -15.997   17.349   14.132
  C   -14.597   19.267   15.099
  H   -18.049   19.994   13.083
  H   -15.173   20.265   12.953
  H   -16.618   19.141   14.910
  H   -15.917   16.878   15.010
  H   -16.894   17.159   13.732
  H   -15.281   17.025   13.514
  H   -14.537   18.748   15.952
  H   -13.791   19.080   14.537
  H   -14.639   20.244   15.306
  H   -17.110   21.432   13.265
  N   -15.115   15.216   10.349
  C   -15.037   13.879   10.938
  C   -14.213   12.864   10.150
  O   -14.259   11.666   10.442
  C   -16.437   13.329   11.150
  C   -17.235   13.305    9.872
  O   -16.669   13.246    8.776
  N   -18.551   13.387    9.995
  H   -15.760   15.380    9.602
  H   -14.613   13.973   11.839
  H   -16.912   13.904   11.816
  H   -16.367   12.396   11.504
  H   -18.966   13.433   10.903
  H   -19.129   13.403    9.179
  N    -8.800   12.442   12.873
  C    -8.770   11.992   14.264
  C    -7.519   12.511   14.983
  O    -6.391   12.271   14.544
  C    -8.838   10.458   14.363
  O    -9.879    9.971   13.498
  C    -9.151   10.036   15.801
  H    -7.938   12.517   12.371
  H    -9.572   12.368   14.728
  H    -7.961   10.066   14.084
  H    -9.925    8.974   13.561
  H    -9.193    9.038   15.854
  H    -8.433   10.372   16.411
  H   -10.031   10.422   16.077
  N    -7.709   13.333   16.032
  C    -9.028   13.759   16.514
  C    -9.780   14.621   15.486
  O    -9.205   15.040   14.477
  C    -8.686   14.532   17.796
  C    -7.296   15.022   17.556
  C    -6.642   13.831   16.919
  H    -9.577   12.955   16.743
  H    -9.316   15.297   17.929
  H    -8.719   13.931   18.594
  H    -7.291   15.810   16.940
  H    -6.845   15.267   18.414
  H    -5.831   14.097   16.398
  H    -6.389   13.147   17.603
  N   -11.067   14.853   15.721
  C   -11.870   15.647   14.805
  C   -11.285   17.056   14.691
  O   -10.962   17.684   15.699
  C   -13.330   15.693   15.269
  C   -14.081   14.405   15.072
  N   -13.752   13.486   14.100
  C   -15.147   13.885   15.731
  C   -14.580   12.455   14.165
  N   -15.434   12.674   15.150
  H   -11.491   14.474   16.543
  H   -11.838   15.217   13.903
  H   -13.800   16.411   14.756
  H   -13.342   15.917   16.243
  H   -13.002   13.583   13.445
  H   -15.633   14.305   16.497
  H   -14.562   11.650   13.572
  N   -11.082   17.510   13.460
  C   -10.517   18.824   13.185
  C   -11.573   19.931   13.283
  O   -12.677   19.796   12.744
  C    -9.889   18.817   11.815
  H   -11.328   16.924   12.688
  H    -9.802   19.008   13.860
  H    -9.500   19.718   11.622
  H    -9.165   18.127   11.784
  H   -10.585   18.601   11.130
  N   -11.234   21.034   13.951
  C   -12.160   22.151   14.130
  C   -12.296   23.037   12.875
  O   -11.283   23.417   12.264
  C   -11.742   23.015   15.365
  C   -11.899   22.208   16.662
  C   -12.583   24.283   15.449
  C   -11.066   22.762   17.840
  H   -10.316   21.099   14.342
  H   -13.062   21.765   14.325
  H   -10.782   23.274   15.264
  H   -11.610   21.267   16.486
  H   -12.864   22.217   16.925
  H   -12.299   24.819   16.244
  H   -12.453   24.825   14.618
  H   -13.548   24.037   15.540
  H   -11.214   22.193   18.649
  H   -10.096   22.751   17.597
  H   -11.349   23.701   18.036
  N   -13.540   23.326   12.482
  C   -13.840   24.180   11.324
  C   -14.427   25.524   11.759
  O   -14.179   26.554   11.139
  C   -14.816   23.484   10.378
  H   -14.304   22.943   13.001
  H   -12.988   24.352   10.829
  H   -15.007   24.080    9.598
  H   -14.412   22.629   10.053
  H   -15.668   23.287   10.864
  H   -15.074   25.509   12.638
  N   -15.180   31.047   12.039
  C   -14.978   29.953   11.094
  C   -13.664   30.020   10.315
  O   -13.275   31.097    9.820
  C   -16.116   29.980   10.076
  O   -15.865   29.102    9.003
  H   -15.014   31.983   11.729
  H   -15.013   29.087   11.592
  H   -16.213   30.910    9.720
  H   -16.965   29.706   10.529
  H   -15.840   29.620    8.148
  H   -15.478   30.902   12.987
  N   -12.997   28.872   10.184
  C   -11.758   28.775    9.406
  C   -12.036   28.020    8.099
  O   -11.144   27.883    7.252
  C   -10.626   28.099   10.221
  C   -10.708   26.665   10.776
  C   -10.283   25.711    9.691
  C    -9.778   26.486   11.980
  H   -13.353   28.051   10.631
  H   -11.463   29.702    9.173
  H   -10.472   28.689   11.014
  H    -9.819   28.116    9.631
  H   -11.649   26.465   11.048
  H   -10.330   24.773   10.035
  H   -10.892   25.809    8.904
  H    -9.345   25.918    9.414
  H    -9.850   25.549   12.320
  H    -8.835   26.668   11.703
  H   -10.042   27.124   12.703
  N   -13.288   27.581    7.931
  C   -13.753   26.834    6.756
  C   -13.489   27.574    5.449
  O   -13.795   28.759    5.325
  C   -15.223   26.518    6.892
  H   -13.951   27.774    8.654
  H   -13.254   25.968    6.725
  H   -15.530   26.010    6.088
  H   -15.371   25.965    7.712
  H   -15.742   27.370    6.966
  N   -14.305   32.222    5.888
  C   -13.429   32.676    6.966
  C   -13.982   34.017    7.398
  O   -13.562   35.070    6.917
  C   -11.994   32.825    6.469
  C   -11.433   31.567    5.821
  C   -11.493   31.584    4.285
  O   -11.935   32.588    3.673
  O   -11.073   30.581    3.674
  H   -14.088   32.503    4.953
  H   -13.462   32.030    7.729
  H   -11.414   33.064    7.248
  H   -11.969   33.564    5.796
  H   -11.958   30.782    6.149
  H   -10.477   31.468    6.099
  N   -14.947   33.952    8.308
  C   -15.656   35.124    8.800
  C   -16.037   34.938   10.274
  O   -15.823   33.874   10.861
  C   -16.940   35.254    7.994
  C   -17.825   34.013    8.178
  S   -19.148   33.794    6.998
  C   -20.224   35.160    7.472
  H   -15.198   33.055    8.672
  H   -15.092   35.942    8.688
  H   -16.711   35.353    7.026
  H   -17.441   36.063    8.303
  H   -18.236   34.065    9.088
  H   -17.234   33.208    8.124
  H   -21.032   35.168    6.883
  H   -20.507   35.046    8.424
  H   -19.730   36.024    7.372
  H   -16.547   35.789   10.739
  N   -16.083   37.938    4.707
  C   -14.892   37.217    4.282
  C   -14.230   38.237    3.324
  O   -14.942   38.954    2.607
  C   -15.331   35.942    3.501
  C   -14.147   35.151    3.009
  C   -16.182   35.065    4.385
  H   -16.979   37.588    4.435
  H   -14.298   36.993    5.055
  H   -15.876   36.224    2.712
  H   -14.468   34.343    2.514
  H   -13.597   35.720    2.397
  H   -13.590   34.865    3.789
  H   -16.460   34.249    3.877
  H   -15.656   34.793    5.191
  H   -16.995   35.571    4.673
  H   -16.040   38.771    5.262
  H   -13.127   38.399    3.388
