636

 Ni     5.536  -58.994  108.358
 Ni     6.227  -58.682  106.558
  N    11.762  -61.230  101.967
  C    10.496  -60.710  102.505
  C     9.942  -59.691  101.502
  O    10.338  -58.524  101.518
  C    10.703  -60.101  103.915
  C     9.469  -60.085  104.771
  N     9.551  -60.148  106.145
  C     8.168  -59.958  104.424
  C     8.305  -60.136  106.590
  N     7.437  -60.025  105.588
  H    12.504  -60.584  101.789
  H     9.847  -61.468  102.579
  H    11.020  -59.159  103.805
  H    11.404  -60.636  104.387
  H    10.385  -60.194  106.695
  H     7.807  -59.838  103.499
  H     8.049  -60.202  107.554
  N     6.179  -58.522   99.940
  C     4.721  -58.545   99.841
  C     4.371  -58.112   98.434
  O     4.695  -56.983   98.060
  C     4.075  -57.632  100.889
  C     4.331  -58.080  102.287
  N     3.429  -58.868  102.966
  C     5.403  -57.864  103.079
  C     3.987  -59.126  104.138
  N     5.151  -58.505  104.266
  H     6.626  -57.729  100.355
  H     4.400  -59.481   99.983
  H     3.087  -57.618  100.734
  H     4.443  -56.709  100.778
  H     2.537  -59.181  102.641
  H     6.222  -57.339  102.846
  H     3.582  -59.714  104.838
  N    -0.212  -57.236  104.800
  C     0.415  -57.675  106.041
  C     1.127  -59.016  105.985
  O     2.029  -59.232  106.796
  H    -1.031  -57.714  104.483
  H    -0.298  -57.735  106.740
  H     1.086  -56.983  106.307
  N    12.279  -60.476  110.455
  C    12.436  -59.424  111.471
  C    12.804  -60.027  112.828
  O    11.989  -60.051  113.754
  C    11.166  -58.547  111.580
  C     9.901  -59.305  111.360
  N     9.413  -60.172  112.312
  C     9.111  -59.367  110.265
  C     8.314  -60.692  111.798
  N     8.110  -60.257  110.554
  H    12.572  -60.262  109.523
  H    13.191  -58.834  111.185
  H    11.223  -57.820  110.895
  H    11.138  -58.142  112.494
  H     9.810  -60.368  113.209
  H     9.233  -58.862  109.411
  H     7.712  -61.330  112.279
  N    10.743  -56.465  103.720
  C     9.331  -56.497  104.139
  C     8.679  -55.278  103.460
  O     8.053  -54.437  104.106
  C     9.180  -56.538  105.684
  C     7.821  -56.897  106.236
  O     6.847  -56.836  105.484
  O     7.738  -57.231  107.438
  H    10.989  -57.030  102.932
  H     8.913  -57.324  103.763
  H     9.417  -55.631  106.033
  H     9.833  -57.210  106.032
  N    15.809  -60.672   97.981
  C    14.928  -60.177   99.035
  C    13.931  -61.280   99.427
  O    12.995  -61.566   98.681
  C    14.219  -58.903   98.543
  C    13.730  -57.989   99.646
  O    13.301  -58.506  100.703
  O    13.739  -56.756   99.438
  H    15.397  -60.969   97.119
  H    15.483  -59.947   99.835
  H    13.430  -59.177   97.993
  H    14.860  -58.389   97.973
  H    16.817  -60.730   98.078
  N    14.149  -61.900  100.602
  C    13.319  -62.995  101.116
  C    11.971  -62.541  101.701
  O    11.115  -63.401  101.892
  C    14.090  -63.798  102.159
  O    14.647  -62.886  103.111
  C    15.171  -64.657  101.524
  H    14.923  -61.596  101.158
  H    13.123  -63.608  100.350
  H    13.447  -64.399  102.635
  H    15.157  -63.397  103.803
  H    15.653  -65.167  102.237
  H    14.752  -65.298  100.881
  H    15.819  -64.071  101.037
  N     9.058  -60.161  100.591
  C     8.457  -59.343   99.534
  C     6.935  -59.535   99.490
  O     6.455  -60.565   99.015
  C     9.102  -59.695   98.157
  C    10.560  -59.188   98.062
  C     8.272  -59.184   96.961
  C    10.747  -57.644   97.995
  H     8.799  -61.126  100.642
  H     8.647  -58.382   99.734
  H     9.131  -60.692   98.091
  H    10.967  -59.581   97.237
  H    11.052  -59.520   98.867
  H     8.728  -59.435   96.107
  H     7.361  -59.597   96.987
  H     8.189  -58.189   97.014
  H    11.722  -57.429   97.936
  H    10.277  -57.286   97.188
  H    10.362  -57.226   98.818
  N     3.737  -58.995   97.638
  C     3.393  -58.700   96.244
  C     2.168  -57.792   96.229
  O     1.066  -58.206   95.868
  C     3.175  -59.990   95.429
  C     4.357  -60.972   95.419
  C     3.956  -62.324   94.847
  C     5.526  -60.416   94.626
  H     3.491  -59.888   98.014
  H     4.156  -58.199   95.835
  H     2.983  -59.728   94.483
  H     2.382  -60.465   95.810
  H     4.657  -61.109   96.363
  H     4.746  -62.937   94.855
  H     3.223  -62.717   95.403
  H     3.635  -62.206   93.907
  H     6.279  -61.074   94.636
  H     5.240  -60.251   93.682
  H     5.829  -59.556   95.037
  N     2.395  -56.531   96.629
  C     1.385  -55.483   96.732
  C     1.306  -54.734   95.406
  O     0.205  -54.395   94.972
  C     1.714  -54.539   97.923
  C     1.581  -55.289   99.264
  C     0.831  -53.290   97.912
  C     2.425  -54.722  100.354
  H     3.333  -56.290   96.877
  H     0.499  -55.914   96.905
  H     2.665  -54.244   97.828
  H     1.849  -56.242   99.121
  H     0.625  -55.251   99.553
  H     1.069  -52.707   98.689
  H     0.977  -52.786   97.060
  H    -0.129  -53.560   97.979
  H     2.291  -55.253  101.190
  H     3.387  -54.761  100.085
  H     2.163  -53.771  100.518
  H     2.262  -54.514   94.882
  N     7.132  -52.313   92.259
  C     8.079  -52.616   93.343
  C     9.402  -53.189   92.807
  O    10.470  -52.798   93.278
  C     7.415  -53.639   94.285
  C     7.922  -53.685   95.705
  C     6.980  -54.504   96.559
  O     7.288  -55.639   96.911
  N     5.780  -54.007   96.848
  H     6.176  -52.556   92.422
  H     8.270  -51.778   93.854
  H     7.547  -54.547   93.887
  H     6.438  -53.429   94.319
  H     7.976  -52.755   96.069
  H     8.831  -54.102   95.720
  H     5.539  -53.081   96.557
  H     5.119  -54.559   97.356
  H     7.345  -51.883   91.361
  H     9.335  -53.940   91.984
  N    11.493  -62.935   96.660
  C    11.007  -64.109   97.380
  C     9.943  -63.644   98.367
  O    10.235  -62.791   99.197
  C    12.171  -64.820   98.095
  C    12.853  -65.922   97.322
  C    12.454  -67.240   97.467
  C    13.969  -65.655   96.543
  C    13.097  -68.260   96.770
  C    14.616  -66.676   95.851
  C    14.184  -67.975   95.980
  H    11.473  -62.052   97.129
  H    10.591  -64.742   96.727
  H    11.813  -65.216   98.941
  H    12.861  -64.130   98.316
  H    11.695  -67.462   98.079
  H    14.313  -64.718   96.477
  H    12.767  -69.201   96.845
  H    15.395  -66.464   95.260
  H    14.660  -68.711   95.499
  H    11.848  -62.965   95.715
  N     8.718  -64.139   98.220
  C     7.609  -63.741   99.080
  C     6.267  -64.252   98.594
  O     6.187  -65.370   98.096
  H     8.551  -64.807   97.495
  H     7.576  -62.742   99.115
  H     7.773  -64.101   99.998
  N     5.221  -63.437   98.713
  C     3.876  -63.824   98.290
  C     2.879  -62.683   98.313
  O     3.159  -61.624   98.884
  H     5.360  -62.528   99.106
  H     3.547  -64.543   98.902
  H     3.928  -64.179   97.357
  H     1.929  -62.856   97.785
  N    -5.682  -56.177  102.026
  C    -5.146  -56.095  103.403
  C    -4.438  -57.400  103.813
  O    -3.438  -57.347  104.531
  C    -6.193  -55.715  104.471
  C    -7.346  -56.665  104.717
  O    -7.600  -57.523  103.861
  O    -7.999  -56.539  105.779
  H    -6.648  -55.983  101.855
  H    -4.453  -55.374  103.404
  H    -6.586  -54.836  104.200
  H    -5.706  -55.610  105.338
  H    -5.065  -56.432  101.246
  N    -4.942  -58.534  103.319
  C    -4.345  -59.847  103.532
  C    -2.913  -59.901  103.037
  O    -2.017  -60.361  103.750
  H    -5.777  -58.479  102.771
  H    -4.884  -60.531  103.040
  H    -4.357  -60.053  104.510
  N    -2.691  -59.396  101.814
  C    -1.362  -59.315  101.202
  C    -0.521  -58.200  101.834
  O     0.687  -58.375  102.001
  C    -1.492  -59.069   99.696
  O    -2.231  -60.128   99.087
  C    -0.153  -58.919   99.010
  H    -3.474  -59.057  101.292
  H    -0.893  -60.187  101.343
  H    -2.003  -58.220   99.565
  H    -3.051  -59.755   98.652
  H    -0.295  -58.761   98.033
  H     0.339  -58.143   99.405
  H     0.383  -59.754   99.138
  N    -1.152  -57.048  102.157
  C    -0.475  -55.889  102.760
  C     0.258  -56.226  104.069
  O     1.216  -55.539  104.402
  C    -1.452  -54.738  103.027
  C    -2.048  -54.114  101.784
  O    -1.871  -54.599  100.661
  N    -2.777  -53.025  101.960
  H    -2.133  -56.980  101.976
  H     0.207  -55.562  102.106
  H    -0.964  -54.025  103.530
  H    -2.201  -55.089  103.589
  H    -2.905  -52.652  102.879
  H    -3.200  -52.574  101.174
  N     0.741  -59.941  105.050
  C     1.340  -61.293  104.955
  C     1.835  -61.663  103.538
  O     1.103  -61.470  102.569
  C     0.334  -62.377  105.403
  O    -0.600  -62.648  104.355
  C    -0.424  -62.003  106.670
  H     0.022  -59.692  104.402
  H     2.125  -61.326  105.574
  H     0.846  -63.217  105.586
  H    -1.099  -61.812  104.129
  H    -1.057  -62.739  106.909
  H     0.225  -61.865  107.418
  H    -0.938  -61.159  106.514
  N     3.057  -62.233  103.432
  C     3.629  -62.684  102.154
  C     3.062  -64.055  101.779
  O     3.782  -65.054  101.847
  C     5.171  -62.746  102.221
  O     5.572  -63.615  103.276
  C     5.803  -61.402  102.420
  H     3.599  -62.354  104.264
  H     3.370  -62.030  101.443
  H     5.507  -63.125  101.359
  H     5.211  -64.532  103.108
  H     6.797  -61.503  102.456
  H     5.556  -60.802  101.659
  H     5.478  -61.004  103.278
  H     2.003  -64.100  101.449
  N     4.665  -69.836  104.631
  C     4.669  -68.617  105.419
  C     3.734  -68.774  106.601
  O     2.565  -69.104  106.409
  C     4.233  -67.456  104.528
  C     4.098  -66.111  105.226
  C     5.429  -65.611  105.739
  C     5.316  -64.226  106.315
  N     4.859  -64.253  107.705
  H     3.783  -70.247  104.402
  H     5.596  -68.445  105.753
  H     3.345  -67.688  104.132
  H     4.909  -67.358  103.797
  H     3.469  -66.208  105.997
  H     3.730  -65.445  104.577
  H     6.083  -65.596  104.983
  H     5.757  -66.233  106.451
  H     4.663  -63.700  105.769
  H     6.213  -63.785  106.277
  H     4.796  -63.318  108.053
  H     3.960  -64.687  107.752
  H     5.509  -64.772  108.260
  H     5.502  -70.291  104.302
  H     4.149  -68.563  107.603
  N     2.223  -66.566  109.571
  C     2.018  -65.213  110.091
  C     1.178  -65.198  111.360
  O     0.351  -66.088  111.569
  C     1.339  -64.331  109.030
  C     1.683  -62.883  109.162
  N     1.204  -62.118  110.207
  C     2.448  -62.105  108.366
  C     1.709  -60.909  110.025
  N     2.453  -60.854  108.922
  H     1.459  -67.017  109.109
  H     2.912  -64.819  110.302
  H     0.348  -64.432  109.119
  H     1.626  -64.645  108.125
  H     2.920  -62.388  107.531
  H     1.552  -60.135  110.638
  H     2.927  -60.049  108.566
  H     3.107  -67.074  109.656
  H     1.335  -64.333  112.044
  N    -1.103  -62.950  111.933
  C    -2.458  -62.591  111.506
  C    -3.254  -63.834  111.093
  O    -4.463  -63.861  111.304
  C    -2.437  -61.586  110.343
  C    -1.797  -60.250  110.671
  O    -0.933  -60.210  111.570
  O    -2.153  -59.248  110.017
  H    -0.331  -62.702  111.348
  H    -2.926  -62.163  112.279
  H    -3.381  -61.418  110.060
  H    -1.930  -61.997  109.585
  H    -0.919  -63.446  112.810
  H    -2.697  -64.672  110.607
  N     6.787  -65.402  111.061
  C     6.445  -64.102  111.633
  C     5.614  -64.488  112.845
  O     4.383  -64.538  112.782
  C     5.697  -63.278  110.571
  C     5.281  -61.881  110.922
  N     4.758  -61.594  112.172
  C     5.404  -60.724  110.231
  C     4.528  -60.294  112.181
  N     4.922  -59.726  111.044
  H     6.032  -66.051  110.968
  H     7.274  -63.623  111.921
  H     4.868  -63.784  110.333
  H     6.292  -63.218  109.769
  H     5.774  -60.615  109.308
  H     4.111  -59.801  112.944
  H     4.578  -62.216  112.934
  H     7.695  -65.729  110.747
  H     6.197  -64.845  113.717
  N    13.525  -66.950  109.947
  C    12.807  -66.041  110.850
  C    12.882  -64.607  110.338
  O    13.967  -64.026  110.311
  C    13.355  -66.122  112.290
  O    14.712  -65.680  112.332
  C    13.224  -67.517  112.904
  H    14.525  -66.936  109.943
  H    11.845  -66.315  110.867
  H    12.817  -65.494  112.852
  H    14.862  -64.996  111.618
  H    13.594  -67.508  113.833
  H    12.260  -67.780  112.932
  H    13.733  -68.175  112.349
  H    13.039  -67.595  109.324
  N    11.734  -64.035  109.935
  C    11.677  -62.642  109.488
  C    11.769  -61.713  110.679
  O    11.337  -62.089  111.770
  C    10.383  -62.345  108.712
  C    10.266  -62.983  107.350
  C    11.278  -62.848  106.411
  C     9.080  -63.574  106.946
  C    11.144  -63.387  105.136
  C     8.935  -64.066  105.652
  C     9.977  -64.002  104.770
  H    10.894  -64.577  109.941
  H    12.457  -62.468  108.887
  H    10.319  -61.354  108.592
  H     9.614  -62.664  109.266
  H    12.115  -62.357  106.654
  H     8.320  -63.648  107.591
  H    11.901  -63.325  104.486
  H     8.065  -64.468  105.367
  H     9.887  -64.404  103.859
  N    14.032  -60.553  112.922
  C    14.541  -61.153  114.160
  C    14.691  -60.092  115.290
  O    14.835  -60.481  116.444
  C    15.854  -61.918  113.900
  O    16.153  -62.724  115.041
  C    17.032  -61.007  113.589
  H    14.625  -60.536  112.117
  H    13.863  -61.821  114.467
  H    15.713  -62.524  113.117
  H    17.004  -63.225  114.882
  H    17.849  -61.561  113.431
  H    16.830  -60.469  112.770
  H    17.191  -60.392  114.361
  N    14.653  -58.776  114.962
  C    14.699  -57.683  115.938
  C    13.362  -57.566  116.690
  O    13.371  -57.549  117.919
  C    15.053  -56.364  115.230
  C    15.103  -55.133  116.120
  C    13.795  -54.386  116.287
  O    13.082  -54.197  115.276
  O    13.480  -53.987  117.431
  H    14.590  -58.536  113.993
  H    15.417  -57.886  116.603
  H    14.368  -56.203  114.520
  H    15.952  -56.474  114.806
  H    15.771  -54.499  115.730
  H    15.409  -55.422  117.027
  N    12.250  -57.462  115.955
  C    10.913  -57.380  116.543
  C     9.975  -56.291  116.062
  O     8.800  -56.314  116.437
  H    12.336  -57.439  114.959
  H    11.031  -57.253  117.528
  H    10.461  -58.255  116.371
  H    10.372  -55.492  115.396
  N     8.931  -55.657  112.898
  C     8.020  -56.301  111.960
  C     7.081  -57.288  112.627
  O     5.894  -57.326  112.298
  H     9.906  -55.869  112.840
  H     8.561  -56.789  111.275
  H     7.473  -55.594  111.511
  H     8.620  -55.007  113.603
  N     7.600  -58.060  113.582
  C     6.805  -59.026  114.335
  C     7.625  -60.053  115.090
  O     8.854  -60.055  115.006
  H     8.574  -57.974  113.791
  H     6.210  -59.510  113.693
  H     6.246  -58.525  114.995
  H     7.061  -60.775  115.692
  N    12.649  -61.797  121.074
  C    12.556  -62.416  119.739
  C    13.980  -62.654  119.182
  O    14.186  -63.630  118.461
  C    11.665  -61.589  118.761
  C    11.524  -62.261  117.374
  C    12.168  -60.175  118.580
  C    10.964  -63.646  117.369
  H    12.703  -60.800  121.126
  H    12.125  -63.311  119.853
  H    10.751  -61.533  119.162
  H    12.433  -62.297  116.958
  H    10.925  -61.687  116.816
  H    11.567  -59.686  117.947
  H    12.173  -59.707  119.464
  H    13.096  -60.196  118.209
  H    10.916  -63.983  116.429
  H    11.554  -64.246  117.909
  H    10.046  -63.636  117.766
  H    12.661  -62.321  121.943
  H    14.788  -61.931  119.469
  N    17.034  -63.318  109.519
  C    16.988  -62.228  108.550
  C    16.504  -60.978  109.269
  O    16.161  -61.051  110.452
  C    16.080  -62.583  107.377
  O    14.719  -62.634  107.763
  H    16.175  -63.580  109.959
  H    17.912  -62.064  108.205
  H    16.349  -63.477  107.019
  H    16.188  -61.891  106.663
  H    14.655  -62.911  108.722
  H    17.870  -63.832  109.783
  N    16.485  -59.833  108.576
  C    16.066  -58.578  109.192
  C    15.472  -57.596  108.194
  O    15.945  -57.491  107.064
  C    17.257  -57.920  109.879
  O    17.500  -58.509  111.144
  H    16.764  -59.838  107.616
  H    15.374  -58.782  109.885
  H    17.067  -56.946  110.003
  H    18.068  -58.031  109.305
  H    17.420  -57.812  111.857
  N    14.463  -56.835  108.647
  C    13.824  -55.787  107.852
  C    14.758  -54.589  107.837
  O    15.554  -54.429  108.762
  C    12.443  -55.464  108.412
  O    12.559  -55.096  109.789
  C    11.506  -56.627  108.270
  H    14.131  -56.993  109.577
  H    13.717  -56.119  106.915
  H    12.067  -54.688  107.905
  H    11.653  -54.884  110.155
  H    10.612  -56.383  108.646
  H    11.408  -56.860  107.302
  H    11.873  -57.413  108.767
  H    14.666  -53.881  106.993
  N     0.255  -51.255  108.672
  C     0.677  -52.575  108.171
  C    -0.214  -53.720  108.683
  O    -0.604  -54.575  107.887
  C     2.140  -52.834  108.520
  S     2.549  -52.538  110.258
  H     0.926  -50.702  109.166
  H     0.603  -52.557  107.174
  H     2.708  -52.234  107.957
  H     2.350  -53.788  108.306
  H     2.417  -53.381  110.780
  H    -0.684  -50.872  108.544
  N    -0.528  -53.736  109.991
  C    -1.367  -54.772  110.609
  C    -2.663  -54.156  111.166
  O    -3.137  -54.574  112.221
  C    -0.576  -55.490  111.719
  C     0.698  -56.103  111.233
  N     1.909  -55.447  111.357
  C     0.903  -57.285  110.611
  C     2.810  -56.254  110.819
  N     2.246  -57.367  110.350
  H    -0.172  -53.005  110.573
  H    -1.610  -55.443  109.908
  H    -1.151  -56.213  112.102
  H    -0.357  -54.826  112.433
  H     0.209  -57.968  110.385
  H     3.789  -56.054  110.771
  H     2.716  -58.122  109.892
  H    -3.168  -53.388  110.527
  N    16.757  -58.817  104.652
  C    15.555  -58.788  103.811
  C    15.019  -57.340  103.783
  O    15.826  -56.415  103.897
  C    14.524  -59.779  104.359
  O    13.845  -59.289  105.503
  H    16.642  -58.581  105.617
  H    15.803  -59.060  102.881
  H    14.995  -60.626  104.605
  H    13.851  -59.967  103.644
  H    13.187  -59.973  105.818
  H    17.699  -59.056  104.343
  N    13.695  -57.130  103.613
  C    13.116  -55.785  103.618
  C    11.743  -55.751  104.289
  O    11.608  -55.078  105.305
  C    13.009  -55.223  102.202
  O    12.054  -55.898  101.399
  H    13.092  -57.917  103.480
  H    13.727  -55.190  104.139
  H    13.904  -55.299  101.762
  H    12.748  -54.259  102.262
  H    12.497  -56.657  100.922
  N     8.856  -55.216  102.115
  C     8.444  -54.137  101.207
  C     6.979  -53.735  101.329
  O     6.107  -54.599  101.324
  C     8.704  -54.544   99.763
  O     8.064  -55.774   99.476
  H     9.321  -55.995  101.694
  H     9.004  -53.333  101.408
  H     9.689  -54.643   99.621
  H     8.349  -53.837   99.152
  H     7.408  -55.643   98.733
  H     6.764  -52.643  101.400
  N     5.277  -52.764  103.787
  C     4.697  -53.335  105.006
  C     5.759  -53.356  106.118
  O     6.010  -54.401  106.710
  C     4.193  -54.744  104.722
  H     6.268  -52.634  103.761
  H     3.928  -52.766  105.299
  H     3.798  -55.131  105.555
  H     3.495  -54.710  104.007
  H     4.955  -55.316  104.418
  H     4.741  -52.490  102.963
  N     6.373  -52.184  106.385
  C     7.490  -51.955  107.316
  C     8.807  -52.385  106.645
  O     9.565  -53.188  107.194
  C     7.322  -52.642  108.691
  C     6.055  -52.262  109.416
  S     5.979  -52.952  111.089
  C     7.315  -52.071  111.868
  H     6.031  -51.382  105.896
  H     7.546  -50.970  107.479
  H     8.101  -52.390  109.266
  H     7.319  -53.632  108.550
  H     5.273  -52.601  108.894
  H     6.008  -51.265  109.478
  H     7.392  -52.359  112.823
  H     8.170  -52.271  111.389
  H     7.133  -51.088  111.830
  N     9.063  -51.830  105.464
  C    10.274  -52.111  104.701
  C    10.339  -51.420  103.357
  O     9.310  -51.225  102.711
  H     8.395  -51.191  105.082
  H    10.326  -53.098  104.548
  H    11.061  -51.816  105.243
  H    11.344  -51.129  102.994
  N    -9.813  -59.772  108.888
  C    -8.405  -60.184  108.938
  C    -7.572  -59.105  109.656
  O    -7.860  -57.914  109.523
  C    -7.862  -60.449  107.507
  C    -6.382  -60.180  107.345
  C    -5.907  -58.888  107.158
  C    -5.452  -61.206  107.443
  C    -4.545  -58.620  107.103
  C    -4.087  -60.957  107.337
  C    -3.636  -59.658  107.194
  O    -2.300  -59.397  107.064
  H   -10.099  -59.147  108.162
  H    -8.342  -61.033  109.462
  H    -8.359  -59.861  106.869
  H    -8.033  -61.408  107.279
  H    -6.559  -58.136  107.061
  H    -5.769  -62.142  107.593
  H    -4.223  -57.679  106.998
  H    -3.435  -61.715  107.364
  H    -1.987  -58.461  106.904
  H   -10.512  -60.090  109.555
  H    -6.705  -59.460  110.234
