489

 Fe    27.770    9.712   75.992
  N    23.593   15.356   75.579
  C    24.188   15.216   74.265
  C    23.653   14.052   73.450
  O    23.200   13.040   73.996
  C    25.728   15.153   74.335
  C    26.277   13.990   75.107
  N    26.327   13.962   76.486
  C    26.861   12.842   74.689
  C    26.922   12.850   76.881
  N    27.254   12.152   75.810
  H    23.073   14.599   75.975
  H    23.959   16.047   73.759
  H    26.054   15.994   74.766
  H    26.080   15.100   73.400
  H    25.969   14.672   77.092
  H    26.983   12.551   73.740
  H    27.092   12.583   77.829
  N    23.379    7.110   70.828
  C    22.673    7.303   72.087
  C    22.432    8.767   72.416
  O    23.001    9.665   71.788
  C    23.399    6.613   73.260
  C    24.717    7.226   73.633
  N    25.905    6.865   73.036
  C    25.038    8.137   74.583
  C    26.900    7.522   73.605
  N    26.401    8.300   74.547
  H    24.201    7.644   70.628
  H    21.777    6.868   71.995
  H    23.560    5.659   73.008
  H    22.801    6.650   74.061
  H    25.999    6.208   72.288
  H    24.401    8.604   75.196
  H    27.867    7.443   73.363
  N    21.616    7.078   77.938
  C    22.632    7.299   78.958
  C    22.062    8.289   79.983
  O    21.430    9.287   79.621
  C    23.904    7.900   78.318
  C    25.099    8.041   79.270
  C    26.298    8.827   78.699
  O    26.161    9.487   77.642
  O    27.389    8.792   79.327
  H    21.183    7.880   77.526
  H    22.855    6.434   79.408
  H    23.676    8.809   77.968
  H    24.179    7.310   77.559
  H    25.415    7.123   79.509
  H    24.785    8.511   80.095
  N    19.399   22.768   73.093
  C    18.772   21.669   72.365
  C    17.293   21.932   72.565
  O    16.928   22.490   73.587
  C    19.112   20.332   73.016
  C    20.433   19.750   72.597
  C    20.681   19.427   71.264
  C    21.397   19.432   73.552
  C    21.871   18.785   70.885
  C    22.589   18.790   73.184
  C    22.824   18.463   71.846
  H    19.837   22.590   73.974
  H    19.020   21.680   71.396
  H    18.394   19.678   72.779
  H    19.129   20.463   74.007
  H    20.001   19.656   70.567
  H    21.237   19.664   74.511
  H    22.033   18.559   69.924
  H    23.271   18.566   73.880
  H    23.671   18.001   71.581
  H    19.395   23.702   72.719
  H    16.584   21.612   71.791
  N    18.439   17.373   78.047
  C    19.251   16.627   77.072
  C    20.717   17.104   77.077
  O    21.020   18.237   76.695
  C    18.641   16.804   75.679
  C    19.011   15.904   74.500
  C    20.340   16.302   73.932
  C    19.019   14.465   74.956
  H    17.790   18.048   77.697
  H    19.228   15.656   77.311
  H    18.862   17.737   75.396
  H    17.652   16.716   75.796
  H    18.316   16.009   73.789
  H    20.566   15.704   73.163
  H    20.297   17.250   73.616
  H    21.043   16.218   74.638
  H    19.261   13.873   74.187
  H    19.690   14.351   75.688
  H    18.111   14.218   75.295
  H    18.496   17.246   79.051
  N    21.622   16.228   77.506
  C    23.042   16.562   77.601
  C    23.737   16.489   76.258
  O    24.425   17.430   75.858
  C    23.749   15.618   78.572
  C    25.043   16.184   79.083
  O    24.994   17.059   79.980
  O    26.103   15.768   78.578
  H    21.321   15.312   77.772
  H    23.125   17.495   77.950
  H    23.939   14.757   78.101
  H    23.145   15.446   79.350
  N    23.691   14.254   72.131
  C    23.251   13.295   71.130
  C    24.511   12.757   70.462
  O    25.386   13.530   70.086
  C    22.372   13.989   70.105
  H    24.049   15.130   71.807
  H    22.748   12.549   71.566
  H    22.072   13.326   69.419
  H    21.573   14.381   70.562
  H    22.892   14.718   69.659
  N    24.599   11.436   70.320
  C    25.759   10.777   69.714
  C    25.404   10.113   68.372
  O    24.281    9.647   68.188
  C    26.312    9.714   70.689
  C    27.549    9.042   70.113
  C    26.616   10.369   72.018
  H    23.840   10.869   70.641
  H    26.469   11.463   69.553
  H    25.609    9.017   70.832
  H    27.889    8.359   70.760
  H    27.314    8.596   69.250
  H    28.257    9.729   69.951
  H    26.974    9.684   72.653
  H    27.296   11.090   71.886
  H    25.778   10.766   72.394
  H    26.191   10.073   67.606
  N    26.215   19.721   72.656
  C    27.339   18.835   72.352
  C    26.897   17.694   71.445
  O    25.858   17.066   71.682
  C    27.887   18.273   73.656
  C    27.961   19.333   74.758
  C    27.865   18.635   76.093
  C    29.236   20.169   74.639
  H    25.503   19.377   73.268
  H    28.056   19.360   71.894
  H    28.806   17.915   73.491
  H    27.291   17.531   73.963
  H    27.174   19.942   74.663
  H    27.912   19.312   76.827
  H    26.997   18.141   76.149
  H    28.623   17.989   76.187
  H    29.257   20.851   75.370
  H    30.034   19.572   74.717
  H    29.250   20.630   73.752
  H    26.109   20.659   72.289
  N    27.704   17.440   70.413
  C    27.442   16.397   69.421
  C    28.598   15.420   69.193
  O    29.385   15.593   68.266
  C    27.094   17.042   68.080
  C    25.647   17.273   67.653
  C    24.771   17.590   68.835
  C    25.629   18.394   66.637
  H    28.532   17.992   70.312
  H    26.648   15.871   69.727
  H    27.507   16.465   67.375
  H    27.535   17.940   68.077
  H    25.306   16.441   67.216
  H    23.832   17.736   68.524
  H    24.794   16.827   69.481
  H    25.105   18.418   69.285
  H    24.688   18.562   66.343
  H    26.003   19.224   67.050
  H    26.184   18.136   65.846
  N    28.725   14.388   70.038
  C    29.825   13.448   69.811
  C    29.510   12.605   68.587
  O    28.342   12.336   68.307
  C    29.823   12.602   71.076
  C    29.284   13.534   72.108
  C    28.154   14.213   71.382
  H    30.694   13.930   69.702
  H    29.232   11.802   70.972
  H    30.749   12.304   71.310
  H    28.950   13.034   72.907
  H    29.978   14.195   72.394
  H    27.337   13.637   71.359
  H    27.929   15.093   71.800
  H    30.365   12.274   67.981
  N    21.897    8.203   64.758
  C    22.149    8.521   66.150
  C    22.379    7.266   67.010
  O    21.614    6.310   66.947
  C    20.982    9.342   66.672
  C    21.228   10.096   67.967
  C    20.366   11.353   67.973
  C    20.936    9.201   69.162
  H    21.082    8.568   64.307
  H    22.973    9.086   66.196
  H    20.213    8.721   66.821
  H    20.739   10.011   65.969
  H    22.190   10.368   68.000
  H    20.520   11.858   68.822
  H    20.611   11.929   67.193
  H    19.402   11.096   67.908
  H    21.102    9.709   70.007
  H    19.981    8.906   69.132
  H    21.533    8.400   69.132
  H    22.530    7.622   64.243
  N    23.450    7.250   67.793
  C    23.702    6.092   68.639
  C    22.930    6.223   69.943
  O    21.948    5.515   70.155
  C    25.188    5.930   68.959
  C    25.462    4.746   69.882
  C    26.867    4.736   70.409
  O    27.309    5.695   71.034
  N    27.584    3.649   70.158
  H    24.079    8.027   67.802
  H    23.386    5.272   68.161
  H    25.513    6.765   69.403
  H    25.687    5.792   68.103
  H    25.305    3.900   69.372
  H    24.830    4.791   70.656
  H    27.181    2.892   69.644
  H    28.528    3.587   70.483
  N    21.562    8.990   73.394
  C    21.216   10.322   73.860
  C    21.549   10.310   75.335
  O    21.124    9.410   76.052
  C    19.718   10.580   73.702
  C    19.033   10.453   72.342
  C    17.545   10.346   72.587
  C    19.345   11.641   71.438
  H    21.124    8.204   73.830
  H    21.750   11.018   73.380
  H    19.557   11.516   74.014
  H    19.254    9.940   74.314
  H    19.349    9.615   71.897
  H    17.068   10.261   71.712
  H    17.357    9.540   73.148
  H    17.226   11.166   73.063
  H    18.881   11.523   70.560
  H    19.026   12.483   71.873
  H    20.332   11.696   71.288
  N    22.325   11.283   75.797
  C    22.656   11.330   77.221
  C    21.704   12.296   77.934
  O    21.509   13.437   77.500
  C    24.081   11.760   77.415
  H    22.681   11.980   75.175
  H    22.539   10.416   77.610
  H    24.291   11.787   78.392
  H    24.690   11.110   76.961
  H    24.211   12.670   77.021
  N    21.108   11.836   79.025
  C    20.171   12.667   79.751
  C    20.725   13.156   81.087
  O    21.246   12.368   81.886
  C    18.867   11.890   79.973
  C    17.927   11.596   78.786
  C    18.644   11.722   77.446
  C    17.342   10.195   78.950
  H    21.307   10.911   79.348
  H    19.964   13.467   79.188
  H    18.333   12.408   80.641
  H    19.122   11.006   80.364
  H    17.176   12.256   78.806
  H    18.002   11.524   76.705
  H    18.996   12.652   77.343
  H    19.403   11.072   77.412
  H    16.731    9.997   78.184
  H    18.083    9.524   78.967
  H    16.829   10.146   79.807
  H    20.629   14.235   81.284
  N    27.916    8.272   85.375
  C    27.159    7.791   84.238
  C    26.696    6.354   84.365
  O    27.099    5.642   85.276
  C    27.989    7.935   82.968
  C    29.369    7.320   83.063
  C    30.144    7.490   81.778
  O    31.357    7.285   81.738
  N    29.439    7.863   80.710
  H    28.538    7.653   85.854
  H    26.348    8.368   84.142
  H    28.092    8.909   82.768
  H    27.497    7.491   82.219
  H    29.276    6.344   83.259
  H    29.871    7.763   83.806
  H    28.454    8.018   80.790
  H    29.895    7.988   79.829
  H    27.822    9.222   85.686
  N    25.854    5.944   83.417
  C    25.280    4.599   83.340
  C    24.638    4.435   81.939
  O    24.174    5.413   81.338
  C    24.209    4.407   84.448
  C    23.817    2.937   84.561
  C    23.006    5.280   84.170
  C    24.829    2.133   85.303
  H    25.596    6.601   82.708
  H    26.005    3.920   83.456
  H    24.607    4.692   85.320
  H    23.719    2.559   83.640
  H    22.942    2.874   85.041
  H    22.324    5.147   84.890
  H    23.288    6.239   84.150
  H    22.610    5.031   83.286
  H    24.528    1.180   85.350
  H    25.707    2.182   84.828
  H    24.930    2.497   86.229
  N    24.618    3.211   81.413
  C    24.024    2.979   80.090
  C    22.878    1.955   80.075
  O    23.017    0.836   80.583
  C    25.116    2.567   79.100
  C    25.969    3.717   78.623
  C    25.519    4.564   77.615
  C    27.227    3.949   79.170
  C    26.307    5.616   77.155
  C    28.014    5.002   78.713
  C    27.547    5.832   77.702
  H    25.010    2.445   81.923
  H    23.649    3.851   79.775
  H    24.679    2.147   78.305
  H    25.710    1.897   79.546
  H    24.615    4.415   77.214
  H    27.569    3.354   79.898
  H    25.970    6.213   76.427
  H    28.917    5.161   79.113
  H    28.114    6.587   77.373
  N    21.742    2.349   79.496
  C    20.576    1.468   79.420
  C    20.728    0.620   78.189
  O    21.179    1.108   77.149
  C    19.241    2.229   79.229
  O    19.234    2.856   77.937
  C    19.040    3.275   80.308
  H    21.686    3.268   79.105
  H    20.529    0.889   80.234
  H    18.488    1.573   79.272
  H    18.845    2.228   77.264
  H    18.172    3.747   80.157
  H    19.026    2.831   81.204
  H    19.789    3.936   80.275
  H    20.410   -0.425   78.277
  N    20.106    2.315   68.967
  C    19.943    3.442   69.868
  C    19.661    3.114   71.323
  O    18.661    2.473   71.640
  C    18.825    4.377   69.418
  C    18.625    5.490   70.450
  C    17.526    3.619   69.314
  C    17.460    6.411   70.104
  H    19.422    2.130   68.261
  H    20.794    3.966   69.843
  H    19.055    4.776   68.531
  H    19.461    6.036   70.498
  H    18.449    5.072   71.341
  H    16.800    4.240   69.019
  H    17.624    2.880   68.648
  H    17.292    3.234   70.207
  H    17.373    7.117   70.807
  H    17.628    6.842   69.217
  H    16.615    5.878   70.061
  H    20.912    1.723   69.059
  N    20.547    3.554   72.213
  C    20.319    3.371   73.634
  C    20.325    4.720   74.350
  O    20.447    5.772   73.720
  C    21.348    2.445   74.265
  C    22.758    2.739   73.888
  C    23.220    2.439   72.624
  C    23.656    3.219   74.832
  C    24.567    2.601   72.303
  C    25.002    3.383   74.521
  C    25.455    3.072   73.258
  H    21.377    4.015   71.900
  H    19.415    2.959   73.754
  H    21.139    1.508   73.984
  H    21.268    2.521   75.259
  H    22.583    2.102   71.931
  H    23.330    3.450   75.749
  H    24.893    2.378   71.384
  H    25.638    3.726   75.212
  H    26.422    3.186   73.030
  N    20.171    4.687   75.669
  C    20.150    5.904   76.461
  C    21.229    5.878   77.521
  O    21.700    4.814   77.929
  C    18.769    6.112   77.131
  C    17.793    6.684   76.095
  C    18.899    7.002   78.379
  C    16.383    6.868   76.593
  H    20.067    3.804   76.127
  H    20.325    6.678   75.853
  H    18.426    5.218   77.421
  H    17.768    6.061   75.313
  H    18.138    7.575   75.801
  H    17.999    7.124   78.797
  H    19.515    6.567   79.036
  H    19.268    7.893   78.116
  H    15.816    7.243   75.859
  H    16.013    5.985   76.881
  H    16.383    7.499   77.369
  N    22.265    8.003   81.260
  C    21.810    8.910   82.304
  C    23.080    9.508   82.905
  O    23.925    8.770   83.406
  C    21.047    8.159   83.405
  C    19.838    7.433   82.795
  C    20.673    9.122   84.524
  C    18.861    8.320   82.073
  H    22.735    7.156   81.509
  H    21.237    9.631   81.913
  H    21.660    7.467   83.787
  H    19.349    6.970   83.534
  H    20.180    6.754   82.145
  H    20.177    8.627   85.237
  H    21.504    9.521   84.912
  H    20.093    9.850   84.158
  H    18.112    7.765   81.711
  H    18.496    9.000   82.709
  H    19.326    8.784   81.319
  N    23.238   10.827   82.846
  C    24.435   11.433   83.407
  C    24.101   12.567   84.331
  O    23.060   13.212   84.211
  C    25.384   11.984   82.323
  C    24.744   13.162   81.603
  C    25.695   10.924   81.322
  C    25.169   14.504   82.122
  H    22.538   11.399   82.418
  H    24.925   10.736   83.929
  H    26.234   12.286   82.755
  H    23.752   13.088   81.701
  H    24.988   13.108   80.635
  H    26.310   11.293   80.626
  H    26.135   10.152   81.780
  H    24.848   10.616   80.889
  H    24.709   15.224   81.602
  H    24.922   14.581   83.088
  H    26.159   14.602   82.022
  H    24.852   12.758   85.100
  N    26.505   15.634   85.996
  C    27.807   16.261   86.044
  C    28.006   17.071   87.307
  O    27.133   17.851   87.691
  C    27.975   17.169   84.825
  C    27.935   16.430   83.495
  C    27.958   17.394   82.339
  N    27.890   16.716   81.056
  C    28.921   16.123   80.469
  N    30.117   16.119   81.050
  N    28.759   15.539   79.288
  H    25.726   16.161   85.657
  H    28.506   15.547   86.009
  H    28.856   17.636   84.899
  H    27.238   17.845   84.832
  H    27.098   15.885   83.449
  H    28.730   15.826   83.433
  H    28.805   17.924   82.379
  H    27.175   18.011   82.419
  H    27.008   16.695   80.585
  H    30.889   15.670   80.601
  H    30.244   16.565   81.936
  H    29.533   15.091   78.842
  H    27.863   15.547   78.845
  H    26.358   14.686   86.292
  H    28.961   16.917   87.831
  N    33.491   13.044   79.095
  C    32.562   12.047   78.596
  C    32.848   10.630   79.084
  O    32.264    9.667   78.600
  C    32.541   12.108   77.060
  C    32.021   13.425   76.509
  C    32.850   14.551   76.446
  C    30.694   13.548   76.091
  C    32.364   15.780   75.982
  C    30.194   14.767   75.623
  C    31.034   15.888   75.569
  H    34.474   12.896   78.983
  H    31.650   12.298   78.919
  H    31.955   11.371   76.723
  H    33.474   11.972   76.726
  H    33.804   14.477   76.737
  H    30.091   12.751   76.127
  H    32.967   16.577   75.947
  H    29.241   14.839   75.328
  H    30.682   16.763   75.236
  H    33.168   13.881   79.551
  H    33.581   10.519   79.887
