611

 Ni    30.452  -46.055   63.799
 Ni    28.563  -46.236   64.612
  N    22.273  -47.605   60.505
  C    23.276  -47.532   61.578
  C    22.528  -47.316   62.895
  O    22.196  -46.183   63.247
  C    24.314  -46.413   61.299
  C    25.648  -46.619   61.960
  N    26.809  -46.118   61.405
  C    25.956  -47.221   63.133
  C    27.791  -46.491   62.214
  N    27.325  -47.167   63.261
  H    21.668  -46.821   60.366
  H    23.757  -48.408   61.625
  H    23.935  -45.547   61.625
  H    24.460  -46.362   60.311
  H    26.892  -45.583   60.564
  H    25.312  -47.627   63.782
  H    28.758  -46.290   62.057
  N    22.717  -48.576   66.897
  C    23.331  -49.274   68.018
  C    22.223  -49.660   68.954
  O    21.476  -48.787   69.396
  C    24.359  -48.397   68.726
  C    25.545  -48.086   67.889
  N    26.658  -48.897   67.896
  C    25.746  -47.077   67.017
  C    27.496  -48.364   67.020
  N    27.010  -47.244   66.510
  H    22.711  -47.576   66.890
  H    23.781  -50.102   67.683
  H    24.668  -48.873   69.549
  H    23.918  -47.537   68.983
  H    26.803  -49.718   68.448
  H    25.100  -46.350   66.785
  H    28.382  -48.757   66.775
  N    29.269  -43.562   57.730
  C    29.927  -42.254   57.869
  C    31.009  -42.073   56.804
  O    32.207  -42.103   57.103
  C    30.512  -42.060   59.288
  C    31.037  -43.316   59.893
  N    32.217  -43.880   59.460
  C    30.480  -44.127   60.820
  C    32.373  -44.981   60.169
  N    31.334  -45.185   60.981
  H    28.291  -43.608   57.934
  H    29.235  -41.547   57.725
  H    29.791  -41.701   59.881
  H    31.260  -41.398   59.234
  H    32.830  -43.527   58.753
  H    29.612  -43.982   61.296
  H    33.167  -45.585   60.106
  N    23.621  -43.503   63.376
  C    24.672  -43.995   64.288
  C    24.232  -43.546   65.689
  O    24.972  -42.889   66.424
  C    26.087  -43.514   63.868
  C    27.270  -44.198   64.513
  O    27.081  -44.854   65.533
  O    28.396  -44.057   63.991
  H    22.908  -44.156   63.122
  H    24.663  -44.995   64.264
  H    26.149  -42.539   64.083
  H    26.167  -43.643   62.880
  N    16.800  -46.866   59.061
  C    18.066  -46.455   59.659
  C    19.040  -47.647   59.665
  O    18.883  -48.573   60.458
  C    17.805  -45.915   61.074
  C    18.867  -44.970   61.596
  O    20.062  -45.182   61.285
  O    18.510  -44.040   62.351
  H    16.294  -47.615   59.490
  H    18.460  -45.722   59.104
  H    17.746  -46.694   61.699
  H    16.932  -45.428   61.065
  H    16.405  -46.432   58.232
  N    20.038  -47.615   58.764
  C    21.035  -48.677   58.609
  C    22.127  -48.681   59.696
  O    22.828  -49.685   59.795
  C    21.679  -48.598   57.230
  O    22.103  -47.249   57.011
  C    20.729  -49.060   56.137
  H    20.103  -46.818   58.164
  H    20.553  -49.551   58.665
  H    22.485  -49.190   57.221
  H    23.092  -47.230   56.864
  H    21.185  -48.994   55.249
  H    20.463  -50.009   56.306
  H    19.914  -48.481   56.137
  N    22.179  -48.422   63.568
  C    21.445  -48.390   64.828
  C    22.162  -49.235   65.879
  O    22.173  -50.464   65.792
  C    19.986  -48.872   64.613
  C    19.153  -47.810   63.868
  C    19.301  -49.285   65.927
  C    18.770  -46.553   64.650
  H    22.434  -49.311   63.188
  H    21.418  -47.444   65.151
  H    20.024  -49.683   64.030
  H    18.306  -48.248   63.567
  H    19.680  -47.519   63.069
  H    18.367  -49.586   65.736
  H    19.813  -50.033   66.349
  H    19.278  -48.504   66.551
  H    18.235  -45.945   64.063
  H    18.225  -46.810   65.448
  H    19.599  -46.082   64.950
  N    22.072  -50.950   69.246
  C    21.002  -51.397   70.134
  C    21.459  -51.202   71.575
  O    21.737  -52.163   72.292
  C    20.597  -52.847   69.834
  C    20.152  -53.122   68.387
  C    20.051  -54.620   68.111
  C    18.823  -52.459   68.083
  H    22.699  -51.622   68.852
  H    20.205  -50.813   69.979
  H    19.839  -53.088   70.441
  H    21.382  -53.434   70.032
  H    20.840  -52.738   67.771
  H    19.761  -54.766   67.165
  H    20.944  -55.046   68.255
  H    19.382  -55.029   68.732
  H    18.561  -52.655   67.138
  H    18.124  -52.814   68.703
  H    18.908  -51.470   68.207
  N    21.518  -49.923   71.983
  C    21.948  -49.478   73.305
  C    20.734  -49.404   74.227
  O    20.844  -49.774   75.396
  C    22.687  -48.115   73.195
  C    24.017  -48.276   72.432
  C    22.926  -47.496   74.570
  C    24.475  -47.030   71.753
  H    21.245  -49.219   71.328
  H    22.585  -50.154   73.675
  H    22.106  -47.491   72.673
  H    23.899  -48.988   71.739
  H    24.722  -48.558   73.083
  H    23.402  -46.623   74.464
  H    22.048  -47.344   75.024
  H    23.485  -48.115   75.122
  H    25.339  -47.206   71.280
  H    23.785  -46.739   71.090
  H    24.608  -46.309   72.433
  H    19.788  -48.999   73.798
  N    14.863  -46.034   72.219
  C    15.387  -45.455   70.973
  C    14.364  -45.537   69.826
  O    14.204  -44.571   69.081
  C    16.664  -46.228   70.589
  C    17.654  -45.507   69.709
  C    18.961  -46.272   69.678
  O    19.268  -46.932   68.692
  N    19.722  -46.289   70.771
  H    15.499  -46.590   72.754
  H    15.622  -44.496   71.133
  H    16.382  -47.059   70.110
  H    17.135  -46.475   71.436
  H    17.815  -44.589   70.072
  H    17.286  -45.439   68.781
  H    19.462  -45.747   71.570
  H    20.553  -46.844   70.793
  H    13.922  -45.930   72.596
  H    13.788  -46.490   69.725
  N    18.051  -51.114   61.491
  C    19.073  -52.015   60.962
  C    20.379  -51.733   61.699
  O    20.825  -50.594   61.692
  C    19.228  -51.810   59.445
  C    18.386  -52.697   58.561
  C    18.887  -53.895   58.075
  C    17.137  -52.281   58.123
  C    18.113  -54.707   57.245
  C    16.367  -53.089   57.289
  C    16.865  -54.291   56.844
  H    18.343  -50.226   61.847
  H    18.797  -52.960   61.137
  H    20.187  -51.970   59.212
  H    18.989  -50.861   59.240
  H    19.813  -54.180   58.322
  H    16.785  -51.390   58.410
  H    18.466  -55.592   56.942
  H    15.452  -52.795   57.014
  H    16.320  -54.862   56.230
  H    17.066  -51.337   61.518
  N    20.954  -52.735   62.356
  C    22.188  -52.569   63.119
  C    22.487  -53.734   64.040
  O    22.273  -54.882   63.658
  H    20.525  -53.638   62.327
  H    22.110  -51.740   63.672
  H    22.947  -52.470   62.476
  N    22.957  -53.457   65.254
  C    23.286  -54.520   66.202
  C    23.619  -54.034   67.595
  O    23.780  -52.830   67.811
  H    23.088  -52.503   65.523
  H    24.076  -55.021   65.848
  H    22.501  -55.137   66.265
  H    23.682  -54.810   68.375
  N    28.900  -52.499   72.521
  C    27.722  -52.091   71.760
  C    27.693  -50.581   71.552
  O    27.291  -50.131   70.482
  C    26.455  -52.551   72.481
  O    26.472  -53.977   72.575
  C    25.178  -52.070   71.800
  H    28.778  -52.751   73.481
  H    27.755  -52.534   70.864
  H    26.472  -52.178   73.409
  H    26.450  -54.248   73.537
  H    24.384  -52.398   72.311
  H    25.169  -51.070   71.776
  H    25.144  -52.426   70.866
  H    29.835  -52.541   72.129
  N    28.098  -49.802   72.570
  C    28.121  -48.333   72.511
  C    28.949  -47.790   71.336
  O    28.675  -46.686   70.886
  C    28.656  -47.724   73.812
  C    27.777  -47.954   75.021
  O    26.793  -48.702   74.979
  N    28.121  -47.322   76.132
  H    28.400  -50.246   73.414
  H    27.179  -48.018   72.392
  H    28.752  -46.738   73.679
  H    29.554  -48.124   73.998
  H    28.921  -46.723   76.139
  H    27.580  -47.444   76.964
  N    29.955  -48.538   70.884
  C    30.790  -48.154   69.753
  C    30.581  -48.950   68.477
  O    30.876  -48.429   67.402
  H    30.146  -49.405   71.343
  H    31.746  -48.260   70.027
  H    30.606  -47.193   69.548
  N    30.081  -50.208   68.556
  C    29.884  -51.048   67.365
  C    28.452  -51.603   67.285
  O    27.878  -51.956   68.310
  C    30.901  -52.210   67.342
  O    30.456  -53.259   68.201
  C    32.307  -51.791   67.759
  H    29.838  -50.577   69.453
  H    30.042  -50.481   66.556
  H    30.945  -52.568   66.409
  H    30.372  -52.912   69.135
  H    32.915  -52.584   67.724
  H    32.643  -51.085   67.136
  H    32.284  -51.430   68.691
  N    27.882  -51.674   66.065
  C    26.552  -52.238   65.817
  C    26.690  -53.737   65.576
  O    26.549  -54.187   64.437
  C    25.875  -51.550   64.616
  O    26.726  -51.628   63.477
  C    25.537  -50.124   64.882
  H    28.397  -51.321   65.284
  H    25.986  -52.095   66.629
  H    25.028  -52.040   64.410
  H    26.899  -52.588   63.255
  H    25.102  -49.728   64.073
  H    24.909  -50.069   65.659
  H    26.373  -49.617   65.093
  H    26.924  -54.377   66.453
  N    29.206  -56.738   60.146
  C    29.715  -55.448   60.572
  C    31.211  -55.541   60.800
  O    31.655  -56.399   61.562
  C    28.995  -55.032   61.851
  C    29.476  -53.732   62.483
  C    29.205  -52.543   61.589
  C    29.565  -51.247   62.264
  N    30.992  -50.946   62.135
  H    29.490  -57.550   60.656
  H    29.533  -54.772   59.858
  H    29.114  -55.763   62.523
  H    28.023  -54.930   61.638
  H    30.460  -53.796   62.648
  H    29.001  -53.599   63.353
  H    28.233  -52.528   61.355
  H    29.747  -52.635   60.754
  H    29.334  -51.312   63.235
  H    29.039  -50.507   61.846
  H    31.193  -50.081   62.594
  H    31.527  -51.679   62.556
  H    31.231  -50.873   61.167
  H    28.583  -56.861   59.365
  H    31.847  -54.807   60.276
  N    34.199  -53.291   62.208
  C    34.559  -52.084   62.955
  C    36.060  -51.964   63.180
  O    36.765  -52.974   63.233
  C    33.846  -52.065   64.317
  C    33.593  -50.683   64.829
  N    34.623  -49.877   65.277
  C    32.428  -50.010   64.951
  C    34.055  -48.736   65.635
  N    32.734  -48.779   65.467
  H    34.232  -54.170   62.683
  H    34.256  -51.288   62.431
  H    34.415  -52.551   64.981
  H    32.968  -52.535   64.223
  H    31.517  -50.346   64.711
  H    34.553  -47.944   65.986
  H    32.086  -48.048   65.679
  H    33.916  -53.281   61.225
  H    36.456  -50.933   63.322
  N    33.125  -49.767   58.917
  C    33.605  -48.644   59.720
  C    35.106  -48.867   59.731
  O    35.652  -49.474   60.655
  C    32.932  -48.703   61.102
  C    33.243  -47.616   62.087
  N    32.239  -47.066   62.870
  C    34.426  -47.074   62.459
  C    32.830  -46.177   63.645
  N    34.149  -46.162   63.449
  H    33.498  -50.664   59.154
  H    33.388  -47.779   59.268
  H    33.196  -49.570   61.524
  H    31.943  -48.693   60.951
  H    35.327  -47.294   62.086
  H    32.350  -45.589   64.296
  H    34.814  -45.593   63.933
  H    32.461  -49.752   58.150
  N    35.739  -48.508   58.605
  C    37.155  -48.747   58.310
  C    38.116  -48.205   59.376
  O    37.757  -47.350   60.186
  C    37.520  -48.170   56.926
  O    36.487  -47.286   56.483
  C    37.724  -49.254   55.885
  H    35.199  -48.037   57.907
  H    37.287  -49.737   58.265
  H    38.369  -47.649   57.013
  H    36.728  -46.915   55.586
  H    37.958  -48.834   55.008
  H    38.467  -49.858   56.174
  H    36.882  -49.784   55.787
  H    39.133  -48.645   59.364
  N    29.134  -48.482   53.316
  C    30.133  -47.712   54.072
  C    29.452  -46.705   54.991
  O    28.823  -45.765   54.505
  C    31.124  -46.993   53.135
  O    30.442  -46.023   52.343
  C    31.911  -47.954   52.247
  H    28.634  -48.032   52.576
  H    30.651  -48.350   54.641
  H    31.782  -46.505   53.709
  H    30.438  -45.145   52.822
  H    32.535  -47.434   51.664
  H    32.437  -48.583   52.820
  H    31.277  -48.475   51.676
  H    28.934  -49.464   53.524
  N    29.575  -46.897   56.315
  C    29.023  -45.956   57.290
  C    29.881  -44.711   57.348
  O    31.086  -44.799   57.102
  C    28.933  -46.576   58.694
  C    27.901  -47.661   58.874
  C    26.582  -47.457   58.495
  C    28.205  -48.817   59.575
  C    25.616  -48.436   58.713
  C    27.223  -49.770   59.835
  C    25.947  -49.591   59.373
  H    30.059  -47.708   56.644
  H    28.103  -45.696   56.997
  H    28.721  -45.842   59.339
  H    29.827  -46.965   58.914
  H    26.322  -46.595   58.059
  H    29.139  -48.969   59.898
  H    24.681  -48.296   58.388
  H    27.451  -50.589   60.362
  H    25.258  -50.301   59.517
  N    30.578  -41.906   55.550
  C    31.500  -41.727   54.428
  C    32.287  -40.400   54.575
  O    33.352  -40.282   53.979
  C    30.737  -41.811   53.097
  O    29.875  -42.951   53.120
  C    31.664  -41.910   51.901
  H    29.594  -41.903   55.373
  H    32.160  -42.478   54.451
  H    30.176  -40.989   52.999
  H    29.225  -42.862   53.874
  H    31.122  -41.962   51.062
  H    32.253  -41.102   51.868
  H    32.229  -42.731   51.984
  N    31.795  -39.438   55.398
  C    32.465  -38.159   55.657
  C    33.740  -38.368   56.489
  O    34.798  -37.890   56.091
  C    31.495  -37.195   56.362
  C    32.069  -35.835   56.722
  C    32.740  -35.739   58.079
  O    32.183  -36.280   59.059
  O    33.826  -35.121   58.163
  H    30.923  -39.612   55.855
  H    32.725  -37.757   54.779
  H    31.186  -37.632   57.207
  H    30.712  -37.049   55.757
  H    31.321  -35.171   56.702
  H    32.747  -35.594   56.027
  N    33.624  -39.051   57.630
  C    34.767  -39.353   58.492
  C    34.652  -39.060   59.974
  O    35.547  -39.457   60.727
  H    32.718  -39.370   57.907
  H    35.544  -38.827   58.147
  H    34.957  -40.330   58.398
  N    33.588  -38.362   60.421
  C    33.422  -38.051   61.847
  C    33.213  -39.325   62.653
  O    33.871  -39.515   63.674
  C    32.252  -37.104   62.061
  H    32.898  -38.050   59.768
  H    34.255  -37.604   62.172
  H    32.157  -36.906   63.037
  H    32.417  -36.253   61.563
  H    31.412  -37.530   61.724
  N    32.330  -40.192   62.169
  C    32.046  -41.472   62.807
  C    33.214  -42.438   62.742
  O    33.508  -43.114   63.730
  H    31.839  -39.956   61.330
  H    31.261  -41.889   62.349
  H    31.822  -41.307   63.767
  N    33.896  -42.480   61.599
  C    35.064  -43.335   61.410
  C    35.470  -43.526   59.963
  O    34.807  -43.015   59.056
  H    33.596  -41.903   60.840
  H    34.861  -44.233   61.799
  H    35.834  -42.926   61.900
  N    36.549  -44.281   59.764
  C    37.116  -44.577   58.452
  C    38.484  -43.949   58.264
  O    38.693  -42.809   58.684
  H    37.001  -44.671   60.567
  H    36.500  -44.224   57.748
  H    37.201  -45.569   58.354
  H    39.278  -44.582   57.781
  N    38.481  -40.496   53.201
  C    37.456  -41.543   53.385
  C    36.283  -41.301   52.395
  O    35.605  -42.260   52.031
  C    36.978  -41.647   54.876
  C    35.870  -42.704   55.095
  C    36.477  -40.331   55.416
  C    36.212  -44.097   54.764
  H    38.369  -39.642   53.710
  H    37.876  -42.418   53.144
  H    37.767  -41.918   55.427
  H    35.086  -42.442   54.532
  H    35.611  -42.677   56.061
  H    36.185  -40.449   56.365
  H    37.211  -39.653   55.375
  H    35.703  -40.018   54.866
  H    35.424  -44.686   54.945
  H    36.459  -44.159   53.797
  H    36.985  -44.393   55.325
  H    39.291  -40.581   52.595
  H    36.124  -40.268   51.993
  N    26.559  -44.140   52.843
  C    25.592  -43.635   53.810
  C    26.274  -42.557   54.643
  O    27.474  -42.323   54.470
  C    25.063  -44.766   54.687
  O    26.061  -45.261   55.562
  H    27.388  -44.569   53.202
  H    24.826  -43.224   53.316
  H    24.748  -45.512   54.100
  H    24.297  -44.423   55.230
  H    25.893  -46.229   55.746
  H    26.457  -44.091   51.834
  N    25.523  -41.893   55.530
  C    26.085  -40.825   56.349
  C    25.373  -40.663   57.680
  O    24.153  -40.795   57.754
  C    26.016  -39.507   55.588
  O    27.078  -39.405   54.656
  H    24.558  -42.134   55.633
  H    27.046  -41.036   56.528
  H    26.077  -38.750   56.238
  H    25.145  -39.457   55.099
  H    27.636  -38.604   54.873
  N    26.145  -40.319   58.721
  C    25.619  -40.045   60.057
  C    24.990  -38.662   60.027
  O    25.387  -37.831   59.208
  C    26.726  -40.178   61.100
  O    27.810  -39.309   60.764
  C    27.216  -41.589   61.202
  H    27.132  -40.246   58.576
  H    24.906  -40.715   60.262
  H    26.361  -39.903   61.989
  H    28.533  -39.398   61.449
  H    27.938  -41.642   61.892
  H    26.459  -42.187   61.466
  H    27.578  -41.881   60.317
  H    24.206  -38.443   60.773
  N    30.308  -33.057   52.275
  C    29.252  -34.051   52.517
  C    27.877  -33.463   52.178
  O    27.094  -34.105   51.482
  C    29.290  -34.499   53.998
  C    28.285  -35.564   54.409
  C    28.238  -35.834   55.902
  O    28.321  -34.867   56.693
  O    28.107  -37.019   56.281
  H    30.946  -32.865   53.021
  H    29.417  -34.847   51.934
  H    29.126  -33.691   54.564
  H    30.205  -34.856   54.184
  H    28.524  -36.416   53.944
  H    27.376  -35.267   54.115
  H    30.436  -32.547   51.396
  H    27.664  -32.437   52.552
  N    21.850  -42.427   57.198
  C    21.709  -43.253   58.398
  C    21.734  -42.317   59.625
  O    21.317  -41.166   59.491
  C    22.817  -44.305   58.439
  O    24.064  -43.771   58.850
  H    22.636  -41.812   57.136
  H    20.824  -43.718   58.366
  H    22.922  -44.695   57.524
  H    22.551  -45.025   59.080
  H    24.751  -44.498   58.860
  H    21.190  -42.446   56.425
  N    22.180  -42.788   60.810
  C    22.283  -41.923   61.991
  C    23.520  -42.256   62.845
  O    24.369  -41.386   62.992
  C    21.013  -41.983   62.837
  O    20.965  -43.042   63.781
  H    22.446  -43.749   60.884
  H    22.385  -40.982   61.667
  H    20.234  -42.084   62.218
  H    20.933  -41.120   63.336
  H    20.179  -43.628   63.585
  N    22.984  -43.947   66.032
  C    22.229  -43.604   67.243
  C    22.973  -43.866   68.550
  O    23.460  -44.975   68.756
  C    20.926  -44.394   67.281
  O    21.201  -45.780   67.214
  H    22.521  -44.549   65.381
  H    22.002  -42.631   67.203
  H    20.356  -44.131   66.503
  H    20.441  -44.193   68.132
  H    20.847  -46.230   68.034
  N    23.003  -42.854   69.453
  C    23.648  -42.913   70.772
  C    25.147  -43.306   70.666
  O    25.706  -43.924   71.574
  C    22.872  -43.847   71.721
  C    21.534  -43.268   72.151
  C    20.945  -44.051   73.297
  O    20.607  -45.231   73.158
  N    20.785  -43.416   74.452
  H    22.550  -41.999   69.201
  H    23.609  -41.993   71.163
  H    23.428  -44.008   72.537
  H    22.709  -44.715   71.252
  H    20.902  -43.297   71.377
  H    21.666  -42.319   72.438
  H    21.066  -42.460   74.540
  H    20.383  -43.893   75.233
  N    25.800  -42.875   69.572
  C    27.215  -43.133   69.291
  C    27.669  -42.263   68.107
  O    28.206  -42.781   67.132
  C    27.413  -44.607   68.974
  H    25.283  -42.341   68.903
  H    27.757  -42.896   70.097
  H    28.379  -44.780   68.783
  H    27.124  -45.158   69.757
  H    26.866  -44.852   68.174
  N    27.441  -40.936   68.213
  C    27.677  -39.908   67.186
  C    26.521  -39.932   66.167
  O    26.744  -40.046   64.960
  C    29.042  -40.025   66.473
  C    30.229  -40.000   67.407
  S    31.813  -39.967   66.522
  C    31.720  -38.368   65.748
  H    27.071  -40.617   69.085
  H    27.654  -39.019   67.643
  H    29.129  -39.261   65.834
  H    29.059  -40.887   65.966
  H    30.201  -40.817   67.983
  H    30.167  -39.185   67.982
  H    32.549  -38.209   65.212
  H    30.922  -38.335   65.146
  H    31.637  -37.662   66.451
  N    25.297  -39.813   66.676
  C    24.093  -39.796   65.853
  C    22.799  -39.713   66.635
  O    22.705  -40.258   67.733
  H    25.198  -39.732   67.668
  H    24.075  -40.634   65.308
  H    24.142  -39.004   65.245
  H    21.960  -39.169   66.156
