411

 Ni   -21.216  -71.905   20.313
  N   -14.783  -69.481   23.641
  C   -15.879  -70.307   23.110
  C   -15.262  -71.592   22.550
  O   -14.804  -71.615   21.405
  C   -16.696  -69.530   22.045
  C   -18.112  -70.004   21.876
  N   -19.110  -69.147   21.463
  C   -18.639  -71.242   22.013
  C   -20.225  -69.863   21.437
  N   -19.990  -71.132   21.763
  H   -14.055  -69.199   23.017
  H   -16.489  -70.549   23.864
  H   -16.229  -69.622   21.165
  H   -16.719  -68.566   22.311
  H   -19.012  -68.179   21.230
  H   -18.145  -72.078   22.250
  H   -21.126  -69.497   21.203
  N   -16.187  -75.666   22.386
  C   -17.026  -76.842   22.605
  C   -16.095  -78.037   22.740
  O   -15.322  -78.303   21.818
  C   -18.028  -77.019   21.454
  C   -19.010  -75.900   21.376
  N   -20.248  -75.991   21.972
  C   -18.880  -74.673   20.824
  C   -20.836  -74.822   21.764
  N   -20.061  -74.008   21.059
  H   -16.106  -75.289   21.463
  H   -17.531  -76.726   23.460
  H   -18.527  -77.875   21.592
  H   -17.522  -77.063   20.592
  H   -20.625  -76.777   22.461
  H   -18.081  -74.318   20.339
  H   -21.748  -74.583   22.096
  N   -15.808  -70.663   18.705
  C   -17.018  -71.507   18.746
  C   -16.675  -72.728   17.896
  O   -17.386  -73.100   16.963
  C   -18.282  -70.741   18.281
  C   -19.621  -71.375   18.579
  O   -19.651  -72.568   18.877
  O   -20.646  -70.666   18.496
  H   -15.179  -70.743   19.479
  H   -17.161  -71.809   19.689
  H   -18.217  -70.627   17.290
  H   -18.269  -69.843   18.722
  N    -9.127  -68.744   24.026
  C   -10.377  -68.980   23.298
  C   -11.521  -69.213   24.303
  O   -11.597  -70.273   24.924
  C   -10.197  -70.177   22.351
  C   -11.152  -70.198   21.179
  O   -12.325  -69.794   21.355
  O   -10.749  -70.681   20.098
  H    -8.760  -69.493   24.578
  H   -10.589  -68.169   22.753
  H   -10.332  -71.016   22.879
  H    -9.264  -70.154   21.993
  H    -8.605  -67.865   24.007
  N   -12.396  -68.205   24.466
  C   -13.519  -68.240   25.407
  C   -14.713  -69.085   24.932
  O   -15.564  -69.385   25.765
  C   -13.985  -66.821   25.723
  O   -14.174  -66.121   24.490
  C   -12.997  -66.091   26.622
  H   -12.273  -67.382   23.912
  H   -13.185  -68.644   26.259
  H   -14.865  -66.874   26.196
  H   -14.480  -65.188   24.680
  H   -13.334  -65.168   26.807
  H   -12.899  -66.589   27.483
  H   -12.109  -66.036   26.166
  N   -15.179  -72.641   23.397
  C   -14.587  -73.929   23.030
  C   -15.526  -75.083   23.390
  O   -15.601  -75.481   24.550
  C   -13.201  -74.122   23.709
  C   -12.144  -73.135   23.165
  C   -12.700  -75.570   23.588
  C   -11.664  -73.370   21.712
  H   -15.541  -72.532   24.323
  H   -14.451  -73.937   22.039
  H   -13.317  -73.927   24.683
  H   -11.343  -73.188   23.762
  H   -12.534  -72.216   23.211
  H   -11.809  -75.653   24.035
  H   -13.353  -76.186   24.028
  H   -12.612  -75.813   22.622
  H   -10.986  -72.677   21.469
  H   -11.253  -74.279   21.640
  H   -12.444  -73.307   21.089
  N   -16.119  -78.735   23.885
  C   -15.217  -79.867   24.108
  C   -15.788  -81.093   23.403
  O   -16.286  -82.028   24.035
  C   -15.002  -80.113   25.616
  C   -14.454  -78.914   26.407
  C   -14.549  -79.147   27.908
  C   -13.014  -78.620   26.029
  H   -16.767  -78.477   24.602
  H   -14.332  -79.650   23.695
  H   -14.356  -80.870   25.716
  H   -15.882  -80.370   26.015
  H   -15.006  -78.112   26.180
  H   -14.186  -78.351   28.393
  H   -15.506  -79.285   28.164
  H   -14.018  -79.958   28.154
  H   -12.684  -77.838   26.557
  H   -12.447  -79.420   26.228
  H   -12.962  -78.409   25.053
  N   -15.693  -81.066   22.067
  C   -16.193  -82.097   21.165
  C   -15.093  -83.126   20.921
  O   -15.388  -84.320   20.869
  C   -16.698  -81.450   19.844
  C   -17.943  -80.577   20.105
  C   -16.990  -82.503   18.779
  C   -18.123  -79.477   19.122
  H   -15.242  -80.274   21.655
  H   -16.964  -82.557   21.607
  H   -15.973  -80.855   19.497
  H   -17.860  -80.174   21.017
  H   -18.752  -81.164   20.072
  H   -17.312  -82.054   17.945
  H   -16.155  -83.016   18.580
  H   -17.695  -83.129   19.113
  H   -18.945  -78.956   19.352
  H   -17.327  -78.873   19.148
  H   -18.219  -79.862   18.204
  H   -14.056  -82.749   20.789
  N    -8.585  -81.121   19.086
  C    -8.871  -79.688   18.902
  C    -7.747  -78.804   19.472
  O    -7.359  -77.827   18.835
  C   -10.200  -79.368   19.614
  C   -10.955  -78.164   19.133
  C   -12.353  -78.197   19.683
  O   -12.928  -77.186   20.130
  N   -12.949  -79.320   19.657
  H    -9.355  -81.697   19.361
  H    -8.971  -79.499   17.925
  H    -9.998  -79.230   20.584
  H   -10.798  -80.162   19.508
  H   -10.990  -78.170   18.134
  H   -10.493  -77.334   19.446
  H   -12.480  -80.127   19.297
  H   -13.886  -79.397   19.997
  H    -7.690  -81.588   18.964
  H    -7.318  -79.099   20.460
  N   -11.280  -72.166   27.053
  C   -12.363  -71.796   27.961
  C   -13.677  -72.203   27.306
  O   -13.949  -71.762   26.198
  C   -12.314  -70.288   28.257
  C   -11.523  -69.874   29.474
  C   -12.145  -69.713   30.702
  C   -10.184  -69.530   29.367
  C   -11.419  -69.312   31.820
  C    -9.461  -69.124   30.486
  C   -10.087  -69.002   31.702
  H   -11.480  -72.206   26.074
  H   -12.256  -72.300   28.818
  H   -13.254  -69.971   28.381
  H   -11.911  -69.834   27.462
  H   -13.126  -69.887   30.786
  H    -9.732  -69.574   28.476
  H   -11.869  -69.250   32.711
  H    -8.485  -68.921   30.404
  H    -9.573  -68.688   32.500
  H   -10.341  -72.384   27.355
  N   -14.434  -73.096   27.931
  C   -15.681  -73.568   27.342
  C   -16.364  -74.659   28.137
  O   -16.471  -74.546   29.353
  H   -14.144  -73.451   28.820
  H   -15.483  -73.922   26.428
  H   -16.308  -72.792   27.270
  N   -16.836  -75.702   27.459
  C   -17.506  -76.820   28.119
  C   -17.935  -77.922   27.173
  O   -17.963  -77.717   25.958
  H   -16.729  -75.721   26.465
  H   -18.319  -76.470   28.584
  H   -16.878  -77.210   28.793
  H   -18.194  -78.891   27.630
  N   -23.377  -81.243   23.520
  C   -22.070  -80.580   23.533
  C   -21.787  -79.906   22.185
  O   -21.207  -78.821   22.168
  C   -20.966  -81.592   23.886
  O   -21.147  -82.073   25.223
  C   -19.569  -81.019   23.736
  H   -23.403  -82.240   23.441
  H   -22.084  -79.873   24.240
  H   -21.049  -82.370   23.264
  H   -21.274  -83.065   25.206
  H   -18.895  -81.717   23.977
  H   -19.427  -80.731   22.789
  H   -19.465  -80.231   24.343
  H   -24.260  -80.740   23.587
  N   -22.191  -80.546   21.062
  C   -21.988  -80.023   19.700
  C   -22.586  -78.623   19.496
  O   -22.099  -77.895   18.641
  C   -22.567  -80.964   18.638
  C   -21.877  -82.305   18.539
  O   -21.018  -82.659   19.355
  N   -22.244  -83.090   17.539
  H   -22.655  -81.426   21.163
  H   -21.002  -79.958   19.543
  H   -22.497  -80.511   17.749
  H   -23.530  -81.124   18.855
  H   -22.941  -82.782   16.891
  H   -21.824  -83.991   17.431
  N   -23.637  -78.281   20.239
  C   -24.271  -76.971   20.165
  C   -24.050  -76.063   21.363
  O   -24.141  -74.846   21.195
  H   -24.009  -78.955   20.878
  H   -25.256  -77.112   20.064
  H   -23.916  -76.503   19.355
  N   -23.771  -76.619   22.586
  C   -23.591  -75.816   23.818
  C   -22.287  -76.122   24.584
  O   -21.971  -77.289   24.805
  C   -24.775  -76.024   24.790
  O   -24.624  -77.258   25.494
  C   -26.129  -76.001   24.097
  H   -23.685  -77.613   22.649
  H   -23.574  -74.851   23.556
  H   -24.758  -75.282   25.460
  H   -24.601  -78.014   24.840
  H   -26.852  -76.140   24.774
  H   -26.258  -75.117   23.648
  H   -26.166  -76.731   23.414
  N   -21.569  -75.064   25.044
  C   -20.336  -75.198   25.840
  C   -20.681  -75.434   27.319
  O   -20.442  -74.556   28.153
  C   -19.425  -73.953   25.696
  O   -20.113  -72.790   26.137
  C   -18.946  -73.731   24.300
  H   -21.895  -74.143   24.831
  H   -19.833  -75.995   25.505
  H   -18.625  -74.083   26.282
  H   -20.370  -72.899   27.097
  H   -18.366  -72.917   24.272
  H   -18.420  -74.526   23.998
  H   -19.731  -73.601   23.695
  H   -21.128  -76.414   27.591
  N   -22.968  -70.938   31.564
  C   -23.315  -70.846   30.158
  C   -24.823  -70.853   30.006
  O   -25.478  -71.766   30.505
  C   -22.687  -72.025   29.420
  C   -23.028  -72.131   27.941
  C   -22.478  -70.961   27.157
  C   -22.706  -71.127   25.677
  N   -24.045  -70.688   25.282
  H   -23.430  -71.628   32.121
  H   -22.951  -69.993   29.785
  H   -22.992  -72.866   29.867
  H   -21.694  -71.945   29.502
  H   -24.022  -72.152   27.838
  H   -22.638  -72.977   27.578
  H   -21.495  -70.890   27.328
  H   -22.931  -70.124   27.463
  H   -22.598  -72.092   25.439
  H   -22.028  -70.584   25.182
  H   -24.159  -70.813   24.296
  H   -24.730  -71.230   25.768
  H   -24.160  -69.721   25.511
  H   -22.288  -70.345   32.009
  H   -25.274  -70.031   29.425
  N   -21.370  -64.191   23.584
  C   -20.793  -64.893   22.438
  C   -21.451  -64.420   21.157
  O   -22.620  -64.029   21.188
  C   -20.960  -66.416   22.562
  C   -20.133  -67.089   23.632
  C   -18.764  -66.876   23.712
  C   -20.689  -68.062   24.448
  C   -17.993  -67.541   24.660
  C   -19.902  -68.759   25.359
  C   -18.571  -68.470   25.485
  H   -22.007  -64.679   24.181
  H   -19.817  -64.681   22.392
  H   -20.712  -66.823   21.683
  H   -21.923  -66.603   22.757
  H   -18.326  -66.236   23.080
  H   -21.666  -68.265   24.381
  H   -17.016  -67.341   24.739
  H   -20.311  -69.475   25.925
  H   -18.021  -68.936   26.178
  H   -21.143  -63.221   23.792
  N   -20.717  -64.511   20.022
  C   -21.177  -64.124   18.680
  C   -22.088  -62.895   18.749
  O   -23.302  -62.996   18.551
  C   -21.882  -65.300   17.962
  C   -22.660  -66.178   18.882
  N   -23.854  -65.766   19.424
  C   -22.341  -67.389   19.391
  C   -24.257  -66.753   20.201
  N   -23.357  -67.737   20.238
  H   -19.787  -64.870   20.103
  H   -20.372  -63.877   18.141
  H   -21.186  -65.856   17.507
  H   -22.508  -64.924   17.279
  H   -24.321  -64.897   19.263
  H   -21.522  -67.926   19.188
  H   -25.125  -66.762   20.698
  H   -21.591  -61.932   18.989
  N   -23.704  -67.125   15.056
  C   -23.694  -68.170   16.073
  C   -24.982  -68.231   16.873
  O   -25.486  -69.321   17.144
  H   -23.092  -66.342   15.168
  H   -22.936  -67.995   16.702
  H   -23.557  -69.052   15.622
  H   -24.301  -67.158   14.245
  H   -25.434  -67.269   17.159
  N   -17.266  -64.912   16.989
  C   -16.859  -66.158   16.345
  C   -16.026  -65.796   15.128
  O   -16.193  -64.706   14.579
  C   -18.083  -67.001   16.003
  O   -18.975  -66.243   15.184
  C   -18.793  -67.464   17.240
  H   -18.207  -64.598   16.862
  H   -16.285  -66.673   16.982
  H   -17.783  -67.804   15.488
  H   -19.776  -66.798   14.961
  H   -19.588  -68.012   16.982
  H   -18.171  -68.018   17.794
  H   -19.093  -66.670   17.769
  H   -16.643  -64.348   17.559
  H   -15.307  -66.549   14.759
  N   -13.209  -64.817   19.941
  C   -13.323  -66.224   20.325
  C   -13.350  -67.075   19.040
  O   -12.749  -66.657   18.047
  C   -14.577  -66.421   21.178
  O   -15.768  -66.443   20.407
  H   -13.929  -64.437   19.360
  H   -12.521  -66.478   20.865
  H   -14.637  -65.671   21.837
  H   -14.497  -67.289   21.668
  H   -16.554  -66.574   21.011
  H   -12.452  -64.196   20.221
  N   -14.020  -68.249   19.044
  C   -14.108  -69.080   17.844
  C   -15.461  -69.792   17.729
  O   -16.167  -69.540   16.760
  C   -12.964  -70.091   17.797
  O   -13.173  -71.275   18.551
  H   -14.465  -68.556   19.885
  H   -14.014  -68.478   17.051
  H   -12.141  -69.643   18.146
  H   -12.822  -70.353   16.843
  H   -12.459  -71.358   19.246
  N   -15.531  -73.321   18.237
  C   -14.885  -74.410   17.518
  C   -15.742  -75.683   17.390
  O   -16.330  -76.150   18.365
  C   -13.551  -74.726   18.168
  O   -13.630  -74.611   19.579
  H   -15.075  -72.988   19.062
  H   -14.695  -74.084   16.592
  H   -12.862  -74.087   17.826
  H   -13.286  -75.661   17.931
  H   -13.406  -75.491   19.998
  H   -15.766  -76.138   16.369
  N   -18.537  -75.922   15.820
  C   -19.936  -75.520   16.000
  C   -20.116  -74.067   15.528
  O   -20.613  -73.233   16.279
  C   -20.322  -75.654   17.467
  H   -17.874  -75.208   15.597
  H   -20.521  -76.117   15.452
  H   -21.276  -75.379   17.587
  H   -20.210  -76.605   17.756
  H   -19.733  -75.066   18.022
  H   -18.193  -76.877   15.906
  N   -19.701  -73.787   14.273
  C   -19.660  -72.466   13.625
  C   -18.414  -71.701   14.109
  O   -18.515  -70.571   14.592
  C   -20.938  -71.620   13.825
  C   -22.202  -72.299   13.364
  S   -23.650  -71.212   13.457
  C   -23.226  -70.000   12.225
  H   -19.387  -74.562   13.724
  H   -19.554  -72.619   12.642
  H   -20.834  -70.768   13.312
  H   -21.029  -71.414   14.799
  H   -22.365  -73.099   13.941
  H   -22.081  -72.591   12.415
  H   -23.954  -69.317   12.165
  H   -22.369  -69.552   12.479
  H   -23.117  -70.450   11.339
  N   -17.252  -72.331   13.962
  C   -15.974  -71.746   14.351
  C   -14.779  -72.654   14.150
  O   -14.897  -73.868   14.294
  H   -17.255  -73.249   13.566
  H   -16.023  -71.505   15.320
  H   -15.832  -70.918   13.808
  H   -13.818  -72.169   13.896
