461

 Fe   105.080   25.940   14.446
  N   101.488   28.183   10.557
  C   102.853   28.374   11.102
  C   103.804   28.011    9.955
  O   104.100   26.836    9.710
  C   103.098   27.486   12.315
  S   104.780   27.665   12.944
  H   101.244   27.291   10.178
  H   102.983   29.333   11.356
  H   102.949   26.532   12.054
  H   102.453   27.738   13.037
  N   104.744   24.582   12.994
  C   103.407   23.979   13.084
  C   102.587   24.654   14.165
  O   101.458   24.177   14.507
  C   103.499   22.480   13.372
  H   102.942   24.106   12.208
  H   102.578   22.094   13.428
  H   104.005   22.030   12.636
  H   103.974   22.336   14.240
  N   103.141   25.719   14.712
  C   102.511   26.420   15.828
  C   103.244   27.775   16.023
  S   105.034   27.426   16.082
  C   101.002   26.650   15.660
  O   100.530   27.124   14.622
  O   105.224   26.741   17.465
  H   102.615   25.793   16.600
  H   102.985   28.357   15.252
  H   102.896   28.172   16.872
  H   106.205   26.550   17.497
  N   107.009   26.034   11.059
  C   106.919   24.739   11.783
  C   107.663   24.737   13.110
  S   107.236   26.056   14.243
  C   105.454   24.281   11.909
  O   104.999   23.634   10.939
  O   107.938   25.709   15.486
  O   107.784   27.318   13.649
  H   106.167   26.524   10.832
  H   107.375   24.063   11.205
  H   107.475   23.867   13.566
  H   108.641   24.805   12.914
  O   104.779   24.163   16.846
  N   105.396   24.447   15.745
  N   101.185   25.898   24.653
  C   100.933   26.367   23.266
  C    99.562   27.047   23.160
  O    98.947   27.068   22.114
  C   101.140   25.277   22.231
  C   102.573   24.709   22.236
  C   103.555   25.825   21.933
  O   103.376   26.437   20.862
  N   104.525   26.099   22.774
  H   101.975   26.266   25.143
  H   101.616   27.073   23.076
  H   100.950   25.657   21.326
  H   100.501   24.532   22.420
  H   102.652   23.996   21.539
  H   102.775   24.321   23.135
  H   104.618   25.572   23.619
  H   105.171   26.834   22.570
  H   100.602   25.231   25.121
  H    99.219   27.561   24.084
  N    98.347   29.897    9.941
  C    99.406   28.965    9.574
  C   100.586   29.138   10.552
  O   100.665   30.169   11.223
  C    99.852   29.194    8.117
  C   100.496   30.607    7.952
  C   100.795   28.109    7.577
  H    98.611   30.775   10.339
  H    99.055   28.032    9.658
  H    99.028   29.177    7.550
  H   100.778   30.736    7.001
  H    99.828   31.309    8.199
  H   101.294   30.681    8.550
  H   101.042   28.322    6.632
  H   101.622   28.077    8.138
  H   100.335   27.221    7.610
  H    97.371   29.711    9.818
  N   104.229   29.021    9.190
  C   105.059   28.703    8.028
  C   106.385   28.098    8.432
  O   106.969   27.341    7.626
  C   105.268   29.921    7.156
  O   106.122   30.883    7.762
  H   103.987   29.967    9.406
  H   104.569   28.022    7.484
  H   104.380   30.346    6.980
  H   105.676   29.630    6.291
  H   105.628   31.745    7.872
  N   106.886   28.405    9.629
  C   108.202   27.951   10.062
  C   108.190   26.563   10.702
  O   109.290   26.013   10.882
  C   108.814   29.002   11.023
  C   109.057   30.380   10.378
  C   109.386   31.413   11.470
  C   110.208   30.298    9.354
  H   106.340   28.966   10.251
  H   108.787   27.905    9.252
  H   109.690   28.652   11.354
  H   108.190   29.123   11.795
  H   108.224   30.666    9.904
  H   109.543   32.306   11.048
  H   108.620   31.477   12.110
  H   110.209   31.128   11.962
  H   110.354   31.198    8.944
  H   111.044   30.002    9.816
  H   109.972   29.640    8.639
  N   100.304   26.277   16.724
  C    98.863   26.122   16.796
  C    98.443   26.294   18.263
  O    99.188   25.895   19.148
  C    98.525   24.679   16.387
  O    98.757   24.493   14.992
  C    97.082   24.285   16.657
  H   100.821   26.084   17.558
  H    98.398   26.783   16.207
  H    99.123   24.058   16.893
  H    99.699   24.190   14.848
  H    96.935   23.339   16.368
  H    96.891   24.368   17.635
  H    96.470   24.889   16.146
  H    97.453   26.754   18.425
  N    97.093   24.767   20.713
  C    96.800   23.363   21.038
  C    95.581   23.168   21.949
  O    94.771   22.281   21.638
  C    97.967   22.673   21.796
  C    99.170   22.403   20.910
  C    99.317   22.570   19.589
  C   100.427   21.914   21.398
  N   100.605   22.197   19.178
  C   101.288   21.791   20.307
  C   100.860   21.577   22.667
  C   102.603   21.326   20.429
  C   102.155   21.111   22.819
  C   103.006   20.994   21.716
  H    98.024   25.110   20.836
  H    96.640   22.867   20.184
  H    97.639   21.802   22.162
  H    98.252   23.265   22.550
  H    98.604   22.914   18.978
  H   100.961   22.221   18.244
  H   100.253   21.668   23.456
  H   103.212   21.239   19.641
  H   102.485   20.855   23.728
  H   103.938   20.660   21.859
  H    96.390   25.385   20.374
  H    95.454   23.753   22.864
  N    97.885   20.156   15.785
  C    97.634   20.317   14.374
  C    97.642   18.981   13.649
  O    98.402   18.066   13.980
  C    98.803   21.169   13.883
  C    99.884   20.956   14.909
  C    99.133   20.780   16.245
  H    96.767   20.792   14.224
  H    99.108   20.864   12.981
  H    98.543   22.134   13.839
  H   100.417   20.137   14.694
  H   100.492   21.749   14.949
  H    99.633   20.182   16.872
  H    98.962   21.660   16.689
  H    97.172   19.679   16.357
  H    96.971   18.920   12.794
  N    98.182   20.500    8.041
  C    98.530   21.867    8.452
  C   100.053   21.997    8.595
  O   100.631   23.069    8.409
  C    97.848   22.172    9.750
  C    98.148   23.463   10.457
  C    99.205   23.628   11.320
  C    97.290   24.571   10.224
  C    99.471   24.819   11.958
  C    97.531   25.745   10.883
  C    98.598   25.887   11.746
  O    98.768   27.083   12.445
  H    97.743   19.885    8.696
  H    98.211   22.510    7.756
  H    98.081   21.433   10.382
  H    96.864   22.160    9.572
  H    99.807   22.849   11.492
  H    96.522   24.494    9.588
  H   100.267   24.916   12.556
  H    96.918   26.521   10.735
  H    99.517   27.177   13.100
  H    98.380   20.173    7.105
  N   100.713   20.872    8.932
  C   102.137   20.792    9.075
  C   102.823   20.522    7.734
  O   104.049   20.510    7.689
  C   102.462   19.641   10.060
  C   101.796   19.927   11.420
  C   102.125   18.892   12.465
  C   101.487   17.580   12.183
  N   101.564   16.688   13.367
  H   100.177   20.043    9.092
  H   102.479   21.653    9.451
  H   103.452   19.575   10.181
  H   102.113   18.779    9.692
  H   100.804   19.946   11.292
  H   102.107   20.820   11.746
  H   101.805   19.220   13.354
  H   103.117   18.768   12.493
  H   101.957   17.146   11.415
  H   100.527   17.727   11.946
  H   101.129   15.813   13.154
  H   102.523   16.534   13.607
  H   101.092   17.116   14.138
  H   102.200   20.358    6.858
  N   102.377   25.136    4.410
  C   103.345   26.115    4.946
  C   103.907   27.012    3.841
  O   104.138   28.205    4.092
  C   104.475   25.370    5.653
  C   104.013   24.745    6.960
  C   105.044   23.864    7.641
  N   106.321   24.561    7.768
  C   107.506   23.985    7.911
  N   107.649   22.652    8.048
  N   108.590   24.765    7.895
  H   102.573   24.160    4.510
  H   102.876   26.691    5.616
  H   105.215   26.014    5.847
  H   104.812   24.647    5.050
  H   103.204   24.188    6.770
  H   103.770   25.483    7.589
  H   105.176   23.035    7.098
  H   104.714   23.617    8.552
  H   106.299   25.561    7.745
  H   108.561   22.255    8.154
  H   106.843   22.060    8.044
  H   109.499   24.361    8.000
  H   108.493   25.753    7.778
  H   101.531   25.414    3.949
  H   104.130   26.563    2.877
  N   100.476   34.398   10.305
  C   101.599   33.448   10.431
  C   102.033   33.449   11.903
  O   102.408   34.482   12.469
  C   102.735   33.882    9.500
  C   103.789   32.784    9.256
  O   103.694   31.732    9.924
  O   104.631   33.004    8.376
  H   100.666   35.369   10.160
  H   101.290   32.532   10.175
  H   103.192   34.673    9.907
  H   102.340   34.142    8.619
  H    99.522   34.082   10.363
  N   101.957   32.265   12.498
  C   102.175   32.093   13.978
  C   103.678   31.957   14.247
  O   104.188   30.859   14.416
  C   101.399   30.857   14.429
  O   100.021   30.948   14.053
  C   101.464   30.762   15.943
  H   101.748   31.459   11.944
  H   101.825   32.897   14.459
  H   101.805   30.038   14.023
  H    99.896   30.547   13.145
  H   100.958   29.955   16.248
  H   102.418   30.686   16.232
  H   101.058   31.582   16.346
  H   104.230   32.897   14.260
  N    98.870   32.769   20.026
  C    98.206   31.576   19.507
  C    96.815   31.978   19.107
  O    96.073   32.578   19.921
  C    98.271   30.434   20.520
  C    99.687   29.974   20.761
  C   100.219   29.091   19.646
  N   101.624   28.715   19.853
  C   102.667   29.521   19.587
  N   102.459   30.726   19.084
  N   103.901   29.063   19.859
  H    98.466   33.240   20.810
  H    98.692   31.286   18.683
  H    97.736   29.664   20.173
  H    97.881   30.748   21.386
  H    99.714   29.458   21.617
  H   100.275   30.779   20.839
  H   100.143   29.586   18.780
  H    99.666   28.259   19.604
  H   101.817   27.803   20.214
  H   103.234   31.326   18.886
  H   101.526   31.038   18.902
  H   104.699   29.636   19.674
  H   104.021   28.149   20.247
  H    99.705   33.131   19.633
  H    96.516   31.730   18.080
  N   106.888   15.005   21.687
  C   106.470   16.172   22.486
  C   106.546   15.871   23.973
  O   106.925   16.745   24.769
  C   105.015   16.503   22.168
  C   104.768   17.226   20.867
  C   105.786   17.723   20.039
  C   103.440   17.436   20.517
  C   105.427   18.381   18.894
  C   103.112   18.128   19.328
  C   104.127   18.594   18.526
  O   103.736   19.259   17.388
  H   106.228   14.453   21.177
  H   107.051   16.957   22.269
  H   104.663   17.077   22.908
  H   104.505   15.643   22.141
  H   106.749   17.600   20.279
  H   102.711   17.095   21.110
  H   106.152   18.723   18.296
  H   102.156   18.276   19.074
  H   104.424   19.626   16.762
  H   107.883   14.790   21.681
  H   106.257   14.838   24.297
  N   112.936   24.249   18.476
  C   112.710   24.740   17.115
  C   114.041   24.823   16.358
  O   114.135   24.398   15.204
  C   112.041   26.110   17.101
  C   110.652   26.107   17.742
  C   109.913   27.386   17.326
  N   108.554   27.367   17.848
  C   108.230   27.740   19.089
  N   109.134   28.308   19.894
  N   106.994   27.606   19.510
  H   112.658   24.794   19.267
  H   112.115   24.092   16.639
  H   111.953   26.411   16.152
  H   112.621   26.752   17.602
  H   110.741   26.079   18.738
  H   110.140   25.307   17.431
  H   109.884   27.442   16.328
  H   110.397   28.182   17.691
  H   107.821   27.057   17.243
  H   108.876   28.582   20.821
  H   110.068   28.459   19.569
  H   106.749   27.885   20.439
  H   106.297   27.225   18.902
  H   113.385   23.334   18.603
  H   114.906   25.281   16.890
  N   115.855   17.040    6.466
  C   114.630   17.725    6.842
  C   113.527   17.455    5.825
  O   112.388   17.167    6.195
  C   114.937   19.240    6.924
  C   113.778   20.113    7.377
  C   112.778   20.524    6.497
  C   113.704   20.534    8.713
  C   111.724   21.313    6.891
  C   112.632   21.341    9.100
  C   111.654   21.722    8.222
  O   110.602   22.528    8.617
  H   116.705   17.559    6.377
  H   114.335   17.401    7.741
  H   115.219   19.548    6.015
  H   115.691   19.368    7.568
  H   112.830   20.233    5.542
  H   114.404   20.262    9.374
  H   111.021   21.588    6.236
  H   112.577   21.650   10.049
  H   110.534   22.832    9.567
  H   115.857   16.041    6.293
  H   113.804   17.580    4.769
  N   106.927   15.047   10.024
  C   106.953   15.981   11.137
  C   107.366   15.397   12.479
  O   108.336   15.858   13.124
  C   105.519   16.625   11.236
  C   105.501   17.633   12.352
  C   105.811   18.978   12.131
  C   105.081   17.273   13.668
  C   105.772   19.890   13.154
  C   105.062   18.171   14.696
  C   105.383   19.493   14.436
  O   105.395   20.444   15.431
  H   106.135   15.026    9.414
  H   107.599   16.709   10.909
  H   104.844   15.910   11.421
  H   105.296   17.079   10.373
  H   106.065   19.280   11.212
  H   104.791   16.332   13.843
  H   106.023   20.843   12.982
  H   104.820   17.879   15.621
  H   105.676   21.381   15.224
  H   107.707   14.415    9.860
  H   106.738   14.584   12.914
  N   110.938   14.463   12.865
  C   111.895   15.556   13.023
  C   112.102   15.922   14.495
  O   113.221   16.257   14.903
  C   111.467   16.817   12.266
  C   111.444   16.602   10.750
  C   111.421   17.906    9.963
  N   110.219   18.753   10.128
  C   109.127   18.667    9.374
  N   108.981   17.730    8.453
  N   108.170   19.567    9.540
  H   110.119   14.577   12.302
  H   112.773   15.255   12.652
  H   112.110   17.553   12.477
  H   110.550   17.078   12.568
  H   110.628   16.074   10.516
  H   112.260   16.087   10.489
  H   111.501   17.677    8.993
  H   112.214   18.446   10.245
  H   110.228   19.437   10.857
  H   108.146   17.695    7.904
  H   109.705   17.056    8.306
  H   107.340   19.522    8.984
  H   108.277   20.291   10.221
  H   111.126   13.578   13.344
  N   111.029   15.842   15.297
  C   111.148   16.148   16.716
  C   111.799   15.020   17.508
  O   112.476   15.316   18.507
  C   109.769   16.568   17.337
  C   109.437   17.908   16.668
  C   109.832   19.130   17.195
  C   108.850   17.873   15.422
  C   109.524   20.316   16.505
  C   108.601   19.026   14.731
  C   108.943   20.266   15.263
  O   108.683   21.393   14.530
  H   110.144   15.571   14.919
  H   111.753   16.941   16.791
  H   109.847   16.678   18.328
  H   109.067   15.887   17.131
  H   110.332   19.167   18.060
  H   108.603   16.992   15.018
  H   109.730   21.201   16.922
  H   108.167   18.978   13.831
  H   108.918   22.293   14.897
  H   111.670   13.980   17.187
  N   112.960   34.223   14.589
  C   111.529   34.025   14.333
  C   111.010   35.100   13.375
  O   109.933   35.659   13.529
  C   110.712   33.996   15.634
  C   111.065   32.779   16.487
  C   110.852   31.463   15.741
  N   109.441   31.253   15.437
  C   108.987   30.119   14.855
  N   109.852   29.242   14.346
  N   107.676   29.954   14.784
  H   113.233   34.951   15.218
  H   111.419   33.138   13.884
  H   109.739   33.962   15.406
  H   110.904   34.826   16.157
  H   110.489   32.782   17.304
  H   112.026   32.844   16.756
  H   111.179   30.709   16.310
  H   111.370   31.485   14.886
  H   108.786   31.973   15.667
  H   109.519   28.403   13.915
  H   110.834   29.423   14.395
  H   107.298   29.130   14.362
  H   107.063   30.653   15.153
  H   113.674   33.670   14.169
  H   111.647   35.305   12.513
