633

 Fe   -31.877  -73.900  -60.319
  N   -33.477  -67.984  -56.403
  C   -33.852  -69.175  -55.665
  C   -32.700  -69.952  -55.100
  O   -31.572  -69.952  -55.621
  C   -34.690  -70.126  -56.560
  C   -33.905  -70.680  -57.716
  N   -33.679  -69.927  -58.865
  C   -33.273  -71.873  -57.840
  C   -32.946  -70.692  -59.654
  N   -32.659  -71.867  -59.067
  H   -32.552  -67.893  -56.771
  H   -34.430  -68.889  -54.901
  H   -35.473  -69.619  -56.919
  H   -35.015  -70.888  -56.000
  H   -34.004  -69.000  -59.054
  H   -33.257  -72.613  -57.168
  H   -32.643  -70.431  -60.571
  N   -31.881  -73.849  -54.598
  C   -32.258  -75.044  -55.324
  C   -33.111  -75.894  -54.378
  O   -32.677  -76.182  -53.274
  C   -31.007  -75.830  -55.743
  C   -31.317  -76.910  -56.764
  C   -31.617  -76.377  -58.151
  O   -31.069  -75.313  -58.521
  O   -32.394  -77.038  -58.872
  H   -30.928  -73.729  -54.320
  H   -32.791  -74.797  -56.133
  H   -30.611  -76.259  -54.931
  H   -30.346  -75.193  -56.140
  H   -32.113  -77.425  -56.446
  H   -30.528  -77.521  -56.825
  N   -29.325  -68.220  -56.444
  C   -28.957  -67.954  -57.825
  C   -30.143  -67.646  -58.746
  O   -31.303  -67.920  -58.427
  C   -28.085  -69.099  -58.380
  C   -28.748  -70.440  -58.383
  N   -28.909  -71.171  -57.206
  C   -29.239  -71.160  -59.418
  C   -29.507  -72.300  -57.562
  N   -29.719  -72.346  -58.882
  H   -30.096  -68.824  -56.241
  H   -28.382  -67.136  -57.815
  H   -27.258  -69.161  -57.821
  H   -27.835  -68.873  -59.321
  H   -28.631  -70.900  -56.284
  H   -29.253  -70.890  -60.381
  H   -29.767  -73.025  -56.924
  N   -34.292  -75.152  -60.130
  C   -35.401  -75.061  -61.079
  C   -35.139  -75.948  -62.300
  O   -36.093  -76.214  -63.055
  C   -35.656  -73.594  -61.513
  C   -35.966  -72.642  -60.353
  C   -37.344  -72.831  -59.736
  C   -37.485  -72.071  -58.438
  N   -38.860  -72.167  -57.882
  O   -33.985  -76.382  -62.497
  H   -34.643  -75.066  -59.198
  H   -33.836  -76.036  -60.234
  H   -36.226  -75.397  -60.624
  H   -36.432  -73.584  -62.143
  H   -34.840  -73.260  -61.984
  H   -35.901  -71.704  -60.693
  H   -35.281  -72.786  -59.639
  H   -37.489  -73.804  -59.559
  H   -38.035  -72.503  -60.380
  H   -37.270  -71.108  -58.603
  H   -36.841  -72.447  -57.772
  H   -38.821  -72.111  -56.884
  H   -39.416  -71.416  -58.237
  H   -39.268  -73.040  -58.151
  O   -29.593  -74.866  -61.491
  H   -29.197  -74.335  -62.240
  H   -28.946  -74.754  -60.737
  N   -36.632  -84.545  -60.467
  C   -35.864  -83.527  -61.191
  C   -35.015  -84.180  -62.278
  O   -34.076  -84.931  -61.980
  C   -34.996  -82.692  -60.222
  C   -34.242  -81.546  -60.887
  C   -35.083  -80.399  -61.420
  O   -35.383  -79.467  -60.639
  O   -35.408  -80.413  -62.629
  H   -36.135  -85.276  -59.998
  H   -36.513  -82.909  -61.635
  H   -34.328  -83.301  -59.796
  H   -35.593  -82.308  -59.518
  H   -33.726  -81.927  -61.655
  H   -33.607  -81.169  -60.213
  H   -37.651  -84.540  -60.421
  H   -35.296  -83.931  -63.314
  N   -40.329  -70.862  -65.204
  C   -39.352  -70.671  -64.130
  C   -38.640  -72.025  -63.941
  O   -38.735  -72.653  -62.880
  C   -40.018  -70.143  -62.821
  C   -40.459  -68.668  -62.893
  C   -39.304  -67.738  -63.182
  O   -38.316  -67.691  -62.447
  N   -39.376  -67.021  -64.291
  H   -41.255  -71.144  -64.953
  H   -38.677  -69.999  -64.434
  H   -39.361  -70.239  -62.073
  H   -40.824  -70.703  -62.630
  H   -40.867  -68.411  -62.017
  H   -41.140  -68.571  -63.619
  H   -40.189  -67.077  -64.871
  H   -38.617  -66.423  -64.550
  H   -40.121  -70.724  -66.195
  N   -38.000  -72.516  -65.036
  C   -37.267  -73.794  -65.075
  C   -35.864  -73.589  -65.656
  O   -35.557  -72.524  -66.205
  C   -38.024  -74.887  -65.880
  O   -38.056  -74.552  -67.266
  C   -39.425  -75.172  -65.363
  H   -38.029  -71.971  -65.874
  H   -37.166  -74.119  -64.135
  H   -37.499  -75.734  -65.793
  H   -38.873  -74.009  -67.459
  H   -39.850  -75.881  -65.925
  H   -39.373  -75.485  -64.415
  H   -39.973  -74.337  -65.409
  N   -35.033  -74.636  -65.576
  C   -33.685  -74.669  -66.141
  C   -33.736  -74.727  -67.678
  O   -32.704  -74.581  -68.348
  C   -32.933  -75.884  -65.611
  O   -33.573  -77.115  -65.903
  H   -35.357  -75.452  -65.097
  H   -33.198  -73.841  -65.864
  H   -32.851  -75.797  -64.618
  H   -32.021  -75.896  -66.021
  H   -33.792  -77.587  -65.049
  H   -34.730  -74.932  -68.128
  N   -34.892  -66.192  -64.973
  C   -35.037  -67.201  -63.936
  C   -34.828  -66.482  -62.622
  O   -33.735  -65.971  -62.360
  C   -34.051  -68.370  -64.103
  C   -34.216  -69.543  -63.121
  C   -35.589  -70.197  -63.264
  C   -33.112  -70.572  -63.318
  H   -34.034  -66.133  -65.484
  H   -35.970  -67.560  -63.963
  H   -33.126  -68.007  -63.992
  H   -34.159  -68.730  -65.030
  H   -34.140  -69.182  -62.192
  H   -35.667  -70.954  -62.615
  H   -36.301  -69.521  -63.075
  H   -35.697  -70.544  -64.196
  H   -33.238  -71.324  -62.671
  H   -33.149  -70.926  -64.252
  H   -32.223  -70.142  -63.160
  H   -35.644  -65.548  -65.187
  N   -35.919  -66.359  -61.847
  C   -35.964  -65.636  -60.575
  C   -35.124  -66.277  -59.481
  O   -34.789  -67.460  -59.550
  C   -37.412  -65.414  -60.136
  C   -38.101  -64.395  -61.035
  C   -39.596  -64.217  -60.858
  O   -40.107  -64.455  -59.739
  O   -40.255  -63.803  -61.838
  H   -36.763  -66.794  -62.163
  H   -35.573  -64.731  -60.745
  H   -37.421  -65.079  -59.194
  H   -37.906  -66.282  -60.186
  H   -37.941  -64.672  -61.982
  H   -37.670  -63.508  -60.870
  N   -34.744  -65.451  -58.495
  C   -33.891  -65.790  -57.367
  C   -34.375  -67.005  -56.590
  O   -35.532  -67.044  -56.147
  C   -33.766  -64.589  -56.424
  C   -32.711  -64.726  -55.350
  C   -31.333  -64.978  -55.983
  C   -32.751  -63.547  -54.379
  H   -35.080  -64.510  -58.540
  H   -32.980  -65.997  -57.723
  H   -34.649  -64.454  -55.975
  H   -33.545  -63.784  -56.975
  H   -32.940  -65.544  -54.822
  H   -30.646  -65.066  -55.262
  H   -31.362  -65.821  -56.521
  H   -31.094  -64.211  -56.578
  H   -32.044  -63.665  -53.682
  H   -32.587  -62.697  -54.880
  H   -33.649  -63.507  -53.940
  N   -33.041  -70.672  -54.045
  C   -32.289  -71.731  -53.418
  C   -32.765  -72.909  -54.292
  O   -33.944  -72.952  -54.667
  C   -32.811  -71.953  -51.965
  O   -32.282  -70.938  -51.142
  C   -32.422  -73.314  -51.393
  H   -33.926  -70.457  -53.632
  H   -31.300  -71.587  -53.461
  H   -33.808  -71.878  -51.967
  H   -32.141  -70.109  -51.684
  H   -32.782  -73.400  -50.464
  H   -32.804  -74.038  -51.967
  H   -31.425  -73.395  -51.373
  N   -34.331  -76.255  -54.804
  C   -35.312  -77.019  -54.021
  C   -35.570  -76.385  -52.646
  O   -35.477  -77.062  -51.623
  C   -34.919  -78.503  -53.915
  C   -34.676  -79.157  -55.270
  C   -34.066  -80.534  -55.119
  O   -34.246  -81.222  -54.111
  N   -33.335  -80.963  -56.128
  H   -34.594  -75.982  -55.729
  H   -36.176  -76.983  -54.524
  H   -35.656  -78.995  -53.452
  H   -34.081  -78.572  -53.374
  H   -34.054  -78.582  -55.801
  H   -35.548  -79.239  -55.753
  H   -33.206  -80.384  -56.933
  H   -32.910  -81.867  -56.088
  N   -35.909  -75.078  -52.633
  C   -36.206  -74.302  -51.419
  C   -37.292  -74.975  -50.570
  O   -37.266  -74.882  -49.343
  C   -36.648  -72.887  -51.795
  H   -35.962  -74.604  -53.512
  H   -35.371  -74.238  -50.872
  H   -36.847  -72.368  -50.964
  H   -35.916  -72.433  -52.304
  H   -37.469  -72.934  -52.363
  H   -38.061  -75.559  -51.113
  N   -33.078  -80.968  -50.066
  C   -32.427  -80.116  -51.066
  C   -30.910  -80.337  -51.074
  O   -30.327  -80.624  -50.018
  C   -32.755  -78.627  -50.824
  C   -32.121  -78.033  -49.583
  C   -32.466  -76.563  -49.413
  N   -33.861  -76.367  -49.015
  C   -34.297  -76.419  -47.759
  N   -33.461  -76.695  -46.769
  N   -35.580  -76.229  -47.488
  H   -33.665  -80.529  -49.386
  H   -32.782  -80.369  -51.966
  H   -33.747  -78.536  -50.741
  H   -32.438  -78.105  -51.616
  H   -31.128  -78.125  -49.653
  H   -32.447  -78.535  -48.782
  H   -32.309  -76.093  -50.281
  H   -31.872  -76.172  -48.710
  H   -34.530  -76.182  -49.734
  H   -33.796  -76.732  -45.827
  H   -32.495  -76.866  -46.963
  H   -35.903  -76.269  -46.542
  H   -36.226  -76.045  -48.229
  H   -32.969  -81.978  -50.021
  N   -30.231  -80.186  -52.228
  C   -28.774  -80.413  -52.231
  C   -27.976  -79.382  -51.434
  O   -28.451  -78.266  -51.218
  C   -28.426  -80.390  -53.727
  C   -29.469  -79.538  -54.346
  C   -30.725  -79.829  -53.581
  H   -28.585  -81.325  -51.866
  H   -27.518  -79.996  -53.871
  H   -28.453  -81.314  -54.109
  H   -29.225  -78.572  -54.264
  H   -29.585  -79.772  -55.311
  H   -31.316  -79.023  -53.545
  H   -31.225  -80.591  -53.992
  H   -26.983  -79.696  -51.057
  N   -24.892  -77.192  -55.857
  C   -25.326  -77.345  -57.243
  C   -24.038  -77.237  -58.055
  O   -23.226  -76.337  -57.801
  C   -26.383  -76.297  -57.685
  C   -26.740  -76.459  -59.179
  C   -27.627  -76.406  -56.823
  H   -24.570  -76.292  -55.563
  H   -25.709  -78.261  -57.363
  H   -25.992  -75.386  -57.555
  H   -27.421  -75.773  -59.435
  H   -25.917  -76.335  -59.734
  H   -27.113  -77.374  -59.335
  H   -28.298  -75.726  -57.119
  H   -28.018  -77.322  -56.916
  H   -27.385  -76.242  -55.867
  H   -24.897  -77.945  -55.171
  H   -23.878  -78.007  -58.840
  N   -25.346  -65.989  -65.325
  C   -25.699  -66.664  -64.090
  C   -25.557  -65.578  -63.024
  O   -24.546  -64.882  -62.996
  C   -24.733  -67.824  -63.823
  O   -24.808  -68.719  -64.921
  C   -25.037  -68.569  -62.513
  H   -24.377  -65.924  -65.565
  H   -26.642  -66.995  -64.129
  H   -23.803  -67.459  -63.773
  H   -24.185  -69.486  -64.769
  H   -24.378  -69.312  -62.391
  H   -24.968  -67.933  -61.744
  H   -25.962  -68.947  -62.551
  H   -26.014  -65.584  -65.951
  N   -26.573  -65.408  -62.184
  C   -26.523  -64.430  -61.100
  C   -26.314  -65.157  -59.795
  O   -26.902  -66.211  -59.583
  C   -27.797  -63.581  -61.045
  C   -28.019  -62.723  -62.262
  C   -27.149  -61.674  -62.567
  C   -29.123  -62.920  -63.088
  C   -27.359  -60.866  -63.679
  C   -29.341  -62.119  -64.204
  C   -28.459  -61.087  -64.492
  O   -28.689  -60.284  -65.581
  H   -27.395  -65.966  -62.297
  H   -25.743  -63.823  -61.255
  H   -27.741  -62.983  -60.245
  H   -28.580  -64.196  -60.948
  H   -26.361  -61.501  -61.976
  H   -29.771  -63.651  -62.875
  H   -26.718  -60.128  -63.891
  H   -30.129  -62.286  -64.796
  H   -28.061  -59.535  -65.791
  N   -25.437  -64.620  -58.948
  C   -25.128  -65.190  -57.624
  C   -25.253  -64.109  -56.582
  O   -24.915  -62.950  -56.833
  C   -23.718  -65.835  -57.585
  C   -23.520  -67.015  -58.550
  C   -22.103  -67.044  -59.132
  C   -23.896  -68.312  -57.903
  H   -24.962  -63.785  -59.225
  H   -25.803  -65.900  -57.423
  H   -23.552  -66.163  -56.655
  H   -23.047  -65.130  -57.815
  H   -24.148  -66.876  -59.315
  H   -22.013  -67.823  -59.753
  H   -21.931  -66.196  -59.634
  H   -21.439  -67.132  -58.389
  H   -23.758  -69.060  -58.552
  H   -23.324  -68.460  -57.096
  H   -24.857  -68.282  -57.629
  H   -25.682  -64.420  -55.617
  N   -41.491  -76.754  -56.789
  C   -41.106  -76.238  -58.113
  C   -41.938  -76.902  -59.207
  O   -42.308  -78.077  -59.067
  C   -39.623  -76.534  -58.424
  C   -38.565  -75.838  -57.590
  O   -38.882  -74.810  -56.955
  O   -37.424  -76.334  -57.560
  H   -40.766  -77.122  -56.207
  H   -41.257  -75.250  -58.138
  H   -39.463  -76.280  -59.378
  H   -39.487  -77.519  -58.314
  H   -42.454  -76.764  -56.417
  N   -42.210  -76.151  -60.302
  C   -42.970  -76.603  -61.481
  C   -42.340  -77.872  -62.064
  O   -43.057  -78.827  -62.347
  C   -43.014  -75.500  -62.572
  C   -44.323  -74.712  -62.675
  C   -45.111  -74.795  -63.976
  O   -44.704  -74.157  -64.976
  O   -46.179  -75.448  -63.970
  H   -41.866  -75.212  -60.311
  H   -43.906  -76.811  -61.198
  H   -42.849  -75.937  -63.456
  H   -42.279  -74.849  -62.380
  H   -44.102  -73.749  -62.523
  H   -44.923  -75.036  -61.944
  N   -40.988  -77.893  -62.167
  C   -40.184  -78.997  -62.693
  C   -40.338  -80.315  -61.918
  O   -40.027  -81.381  -62.463
  C   -38.713  -78.594  -62.769
  O   -38.179  -78.304  -61.487
  H   -40.496  -77.080  -61.855
  H   -40.492  -79.167  -63.629
  H   -38.629  -77.781  -63.346
  H   -38.192  -79.345  -63.174
  H   -37.203  -78.522  -61.475
  N   -40.799  -80.240  -60.650
  C   -41.005  -81.397  -59.767
  C   -42.399  -81.989  -59.888
  O   -42.633  -83.111  -59.440
  C   -40.716  -81.004  -58.309
  C   -39.292  -81.215  -57.875
  C   -38.265  -80.448  -58.413
  C   -38.978  -82.155  -56.899
  C   -36.942  -80.651  -58.014
  C   -37.657  -82.372  -56.512
  C   -36.646  -81.628  -57.080
  H   -41.015  -79.334  -60.287
  H   -40.348  -82.104  -60.030
  H   -41.307  -81.550  -57.716
  H   -40.936  -80.035  -58.198
  H   -38.475  -79.745  -59.092
  H   -39.711  -82.683  -56.469
  H   -36.210  -80.091  -58.403
  H   -37.443  -83.066  -55.824
  H   -35.696  -81.795  -56.817
  H   -43.155  -81.364  -60.401
  N   -34.496  -69.402  -49.952
  C   -35.294  -68.346  -50.547
  C   -35.835  -68.778  -51.878
  O   -35.176  -69.500  -52.611
  C   -34.463  -67.058  -50.708
  C   -35.304  -65.855  -51.063
  C   -36.104  -65.239  -50.105
  C   -35.321  -65.353  -52.364
  C   -36.889  -64.128  -50.436
  C   -36.093  -64.233  -52.688
  C   -36.881  -63.638  -51.730
  H   -33.992  -70.037  -50.537
  H   -36.065  -68.152  -49.940
  H   -33.790  -67.202  -51.433
  H   -33.990  -66.874  -49.846
  H   -36.118  -65.594  -49.170
  H   -34.775  -65.799  -53.073
  H   -37.455  -63.689  -49.738
  H   -36.072  -63.864  -53.617
  H   -37.449  -62.850  -51.969
  H   -34.451  -69.494  -48.956
  N   -37.038  -68.312  -52.196
  C   -37.662  -68.551  -53.487
  C   -38.493  -67.308  -53.774
  O   -39.538  -67.113  -53.161
  C   -38.489  -69.859  -53.513
  C   -38.822  -70.342  -54.913
  O   -39.140  -69.494  -55.775
  O   -38.807  -71.581  -55.136
  H   -37.536  -67.773  -51.517
  H   -36.943  -68.618  -54.179
  H   -39.345  -69.701  -53.021
  H   -37.965  -70.573  -53.049
  N   -37.980  -66.442  -54.669
  C   -38.602  -65.163  -55.069
  C   -40.046  -65.336  -55.568
  O   -40.950  -64.633  -55.121
  C   -37.725  -64.460  -56.132
  C   -38.446  -63.373  -56.960
  C   -37.551  -62.502  -57.801
  O   -36.361  -62.789  -57.947
  N   -38.065  -61.414  -58.353
  H   -37.109  -66.684  -55.097
  H   -38.629  -64.574  -54.261
  H   -37.386  -65.157  -56.764
  H   -36.953  -64.031  -55.663
  H   -38.944  -62.782  -56.326
  H   -39.094  -63.829  -57.570
  H   -39.032  -61.197  -58.224
  H   -37.485  -60.809  -58.898
  N   -40.231  -66.307  -56.464
  C   -41.478  -66.649  -57.122
  C   -42.443  -67.449  -56.257
  O   -43.644  -67.190  -56.299
  C   -41.158  -67.444  -58.410
  C   -42.368  -67.773  -59.266
  O   -43.234  -66.876  -59.450
  O   -42.450  -68.915  -59.759
  H   -39.430  -66.854  -56.706
  H   -41.932  -65.798  -57.387
  H   -40.720  -68.303  -58.146
  H   -40.524  -66.902  -58.962
  N   -41.933  -68.435  -55.501
  C   -42.802  -69.361  -54.771
  C   -43.032  -69.068  -53.272
  O   -44.054  -69.517  -52.743
  C   -42.325  -70.801  -54.973
  C   -42.296  -71.287  -56.453
  C   -41.887  -72.731  -56.549
  C   -43.634  -71.068  -57.169
  H   -40.941  -68.539  -55.435
  H   -43.700  -69.302  -55.207
  H   -42.936  -71.404  -54.461
  H   -41.398  -70.875  -54.605
  H   -41.606  -70.746  -56.934
  H   -41.878  -73.012  -57.509
  H   -40.973  -72.845  -56.160
  H   -42.538  -73.296  -56.042
  H   -43.565  -71.395  -58.112
  H   -44.353  -71.574  -56.693
  H   -43.856  -70.093  -57.169
  H   -42.311  -68.427  -52.722
  N   -30.960  -58.160  -53.800
  C   -30.480  -59.047  -54.843
  C   -30.190  -58.282  -56.150
  O   -29.079  -58.394  -56.667
  C   -31.494  -60.168  -55.080
  C   -31.301  -60.921  -56.376
  C   -30.209  -61.769  -56.560
  C   -32.235  -60.823  -57.407
  C   -30.025  -62.466  -57.755
  C   -32.076  -61.537  -58.593
  C   -30.977  -62.371  -58.754
  O   -30.804  -63.102  -59.900
  H   -31.855  -58.353  -53.398
  H   -29.626  -59.462  -54.530
  H   -32.409  -59.766  -55.085
  H   -31.421  -60.820  -54.326
  H   -29.545  -61.880  -55.821
  H   -33.032  -60.230  -57.293
  H   -29.210  -63.030  -57.888
  H   -32.751  -61.449  -59.326
  H   -31.480  -63.048  -60.635
  H   -30.445  -57.355  -53.452
  H   -31.000  -57.649  -56.586
  N   -22.092  -74.065  -56.645
  C   -22.862  -73.119  -55.846
  C   -23.098  -73.754  -54.493
  O   -23.582  -74.874  -54.441
  C   -24.205  -72.687  -56.523
  C   -23.974  -72.113  -57.952
  C   -24.988  -71.677  -55.611
  C   -25.215  -72.012  -58.845
  H   -22.537  -74.895  -56.982
  H   -22.304  -72.300  -55.712
  H   -24.770  -73.506  -56.617
  H   -23.311  -72.702  -58.415
  H   -23.592  -71.194  -57.854
  H   -25.841  -71.414  -56.061
  H   -25.194  -72.111  -54.734
  H   -24.428  -70.863  -55.457
  H   -24.956  -71.634  -59.734
  H   -25.609  -72.922  -58.972
  H   -25.890  -71.414  -58.412
  H   -21.119  -73.903  -56.867
  H   -22.802  -73.178  -53.590
  N   -25.391  -74.204  -51.886
  C   -26.842  -74.075  -51.806
  C   -27.356  -73.703  -50.414
  O   -28.546  -73.456  -50.258
  C   -27.532  -75.337  -52.350
  C   -28.980  -75.138  -52.687
  O   -29.352  -74.169  -53.352
  N   -29.835  -76.039  -52.211
  H   -25.011  -75.124  -51.979
  H   -27.097  -73.324  -52.415
  H   -27.465  -76.056  -51.658
  H   -27.052  -75.626  -53.178
  H   -29.499  -76.813  -51.675
  H   -30.814  -75.942  -52.389
  H   -24.739  -73.424  -51.853
  H   -26.633  -73.641  -49.590
  N   -25.720  -69.324  -50.683
  C   -25.989  -68.447  -51.824
  C   -27.230  -68.871  -52.563
  O   -27.640  -70.018  -52.508
  C   -24.793  -68.424  -52.775
  H   -25.963  -70.292  -50.745
  H   -26.132  -67.519  -51.479
  H   -24.993  -67.821  -53.548
  H   -23.987  -68.086  -52.289
  H   -24.616  -69.349  -53.111
  H   -25.300  -68.981  -49.843
  N   -27.850  -67.912  -53.209
  C   -29.041  -68.065  -54.036
  C   -28.641  -67.664  -55.451
  O   -27.657  -66.928  -55.636
  C   -30.267  -67.298  -53.470
  C   -30.907  -68.077  -52.314
  C   -29.888  -65.892  -53.011
  H   -27.470  -66.991  -53.126
  H   -29.274  -69.037  -54.052
  H   -30.945  -67.214  -54.200
  H   -31.693  -67.568  -51.964
  H   -31.209  -68.972  -52.642
  H   -30.236  -68.199  -51.583
  H   -30.699  -65.428  -52.653
  H   -29.194  -65.951  -52.293
  H   -29.523  -65.376  -53.786
  N   -29.809  -67.062  -59.883
  C   -30.747  -66.701  -60.931
  C   -30.079  -66.784  -62.290
  O   -28.873  -67.035  -62.375
  H   -28.842  -66.854  -60.032
  H   -31.068  -65.766  -60.778
  H   -31.525  -67.329  -60.907
  H   -30.720  -66.611  -63.171
  N   -25.786  -80.321  -65.310
  C   -26.062  -80.085  -63.900
  C   -26.056  -81.359  -63.075
  O   -26.641  -82.361  -63.476
  C   -27.385  -79.338  -63.672
  C   -27.669  -79.090  -62.174
  C   -28.852  -78.194  -61.916
  N   -30.119  -78.805  -62.311
  C   -31.299  -78.212  -62.176
  N   -31.381  -76.987  -61.676
  N   -32.403  -78.834  -62.547
  H   -26.514  -80.674  -65.898
  H   -25.329  -79.502  -63.549
  H   -28.131  -79.882  -64.055
  H   -27.341  -78.456  -64.141
  H   -26.860  -78.668  -61.766
  H   -27.841  -79.972  -61.736
  H   -28.730  -77.347  -62.433
  H   -28.888  -77.986  -60.939
  H   -30.096  -79.723  -62.706
  H   -32.273  -76.546  -61.577
  H   -30.551  -76.504  -61.398
  H   -33.290  -78.383  -62.443
  H   -32.352  -79.756  -62.932
  H   -24.874  -80.136  -65.708
  H   -25.552  -81.300  -62.096
  N   -25.931  -82.618  -58.533
  C   -26.177  -82.211  -57.164
  C   -25.252  -82.929  -56.213
  O   -24.890  -84.092  -56.433
  C   -27.644  -82.460  -56.799
  C   -28.653  -81.763  -57.687
  C   -28.715  -80.370  -57.743
  C   -29.558  -82.497  -58.451
  C   -29.666  -79.727  -58.538
  C   -30.512  -81.852  -59.243
  C   -30.551  -80.467  -59.287
  H   -26.018  -83.587  -58.762
  H   -25.999  -81.230  -57.093
  H   -27.788  -82.146  -55.861
  H   -27.813  -83.444  -56.850
  H   -28.070  -79.825  -57.207
  H   -29.525  -83.496  -58.432
  H   -29.704  -78.728  -58.563
  H   -31.165  -82.389  -59.777
  H   -31.224  -80.005  -59.865
  H   -25.677  -81.975  -59.266
  H   -24.932  -82.355  -55.332
