758

 Fe    81.546   -1.807   33.943
  N    82.529    3.078   40.322
  C    81.513    3.851   39.603
  C    80.801    4.762   40.598
  O    80.629    4.407   41.767
  C    80.469    2.943   38.932
  C    80.980    2.151   37.745
  C    80.782    2.613   36.438
  C    81.650    0.945   37.921
  C    81.251    1.893   35.340
  C    82.115    0.209   36.821
  C    81.920    0.695   35.534
  O    82.381   -0.013   34.436
  H    82.269    2.220   40.765
  H    81.959    4.411   38.905
  H    79.713    3.518   38.619
  H    80.135    2.295   39.617
  H    80.296    3.474   36.290
  H    81.803    0.597   38.846
  H    81.105    2.241   34.414
  H    82.585   -0.662   36.963
  N    88.336   -3.464   38.216
  C    87.516   -3.879   39.346
  C    87.215   -5.383   39.231
  O    87.575   -5.991   38.223
  C    86.262   -2.996   39.458
  C    85.280   -3.042   38.307
  C    84.289   -4.020   38.249
  C    85.301   -2.074   37.316
  C    83.368   -4.049   37.221
  C    84.376   -2.096   36.266
  C    83.411   -3.084   36.231
  O    82.489   -3.121   35.209
  H    88.125   -3.831   37.310
  H    88.056   -3.742   40.177
  H    86.568   -2.049   39.555
  H    85.771   -3.274   40.284
  H    84.244   -4.715   38.967
  H    85.988   -1.348   37.352
  H    82.671   -4.766   37.192
  H    84.413   -1.402   35.547
  N    87.409   -1.320   30.611
  C    86.403   -0.939   29.613
  C    85.756    0.412   29.882
  O    85.716    0.881   31.006
  C    85.285   -1.993   29.553
  C    84.555   -2.160   30.855
  N    85.093   -2.845   31.923
  C    83.349   -1.699   31.272
  C    84.246   -2.808   32.940
  N    83.180   -2.120   32.572
  H    87.399   -0.887   31.513
  H    86.847   -0.902   28.718
  H    85.691   -2.872   29.302
  H    84.626   -1.717   28.853
  H    85.984   -3.299   31.929
  H    82.704   -1.155   30.736
  H    84.389   -3.230   33.835
  N    81.912    2.151   29.113
  C    80.575    1.846   28.621
  C    80.054    2.949   27.704
  O    80.353    4.116   27.911
  C    79.596    1.694   29.776
  C    79.839    0.498   30.640
  N    79.280   -0.733   30.376
  C    80.548    0.354   31.788
  C    79.651   -1.591   31.313
  N    80.429   -0.959   32.172
  H    82.028    2.603   29.998
  H    80.607    0.988   28.109
  H    78.674    1.623   29.397
  H    79.659    2.511   30.349
  H    78.687   -0.945   29.599
  H    81.060    1.069   32.264
  H    79.387   -2.554   31.362
  O    80.655   -3.943   33.378
  O    79.528   -2.196   35.125
  C    79.733   -4.509   34.327
  C    79.556   -3.579   35.537
  H    80.193   -3.813   32.501
  H    78.585   -1.925   34.930
  H    80.085   -5.391   34.640
  H    78.847   -4.642   33.884
  H    78.696   -3.801   35.997
  H    80.318   -3.717   36.170
  N    76.110   -5.957   27.110
  C    75.217   -5.632   28.213
  C    75.486   -4.261   28.846
  O    76.592   -3.707   28.771
  C    75.208   -6.759   29.253
  C    76.565   -7.146   29.807
  S    76.393   -8.489   31.002
  C    75.534   -9.711   30.011
  H    76.760   -6.712   27.198
  H    74.294   -5.592   27.829
  H    74.807   -7.569   28.826
  H    74.634   -6.467   30.018
  H    76.976   -6.354   30.258
  H    77.155   -7.445   29.057
  H    75.369  -10.530   30.561
  H    74.660   -9.335   29.702
  H    76.094   -9.950   29.217
  N    74.437   -3.709   29.440
  C    74.485   -2.412   30.099
  C    75.294   -2.448   31.398
  O    76.104   -1.563   31.655
  C    73.051   -1.968   30.389
  C    72.890   -0.652   31.120
  C    71.425   -0.275   31.284
  O    70.812    0.212   30.311
  O    70.873   -0.512   32.378
  H    73.570   -4.208   29.435
  H    74.906   -1.752   29.477
  H    72.618   -2.679   30.943
  H    72.573   -1.891   29.514
  H    73.353    0.066   30.601
  H    73.308   -0.731   32.025
  N    75.074   -3.481   32.204
  C    75.711   -3.587   33.504
  C    74.874   -2.884   34.557
  O    74.018   -2.057   34.222
  H    74.452   -4.206   31.907
  H    76.616   -3.163   33.464
  H    75.806   -4.552   33.748
  N    75.720   -0.655   36.645
  C    76.206    0.678   37.022
  C    75.807    1.833   36.098
  O    76.336    2.938   36.213
  C    77.718    0.637   37.248
  C    78.101   -0.395   38.281
  C    77.369   -0.530   39.456
  C    79.152   -1.279   38.060
  C    77.693   -1.490   40.396
  C    79.486   -2.248   39.002
  C    78.752   -2.347   40.165
  O    79.075   -3.306   41.104
  H    76.239   -1.196   35.983
  H    75.798    0.881   37.912
  H    78.023    1.537   37.560
  H    78.169    0.413   36.384
  H    76.594    0.079   39.624
  H    79.676   -1.217   37.211
  H    77.163   -1.564   41.241
  H    80.253   -2.868   38.836
  H    79.841   -3.928   40.940
  N    78.354    8.109   27.573
  C    79.462    7.328   28.120
  C    79.378    7.221   29.644
  O    78.961    8.162   30.317
  C    80.796    7.990   27.766
  C    81.167    7.927   26.298
  C    81.809    6.813   25.789
  C    80.927    8.998   25.455
  C    82.193    6.759   24.464
  C    81.307    8.958   24.119
  C    81.936    7.840   23.622
  H    78.399    9.107   27.613
  H    79.439    6.409   27.726
  H    81.517    7.536   28.289
  H    80.746    8.952   28.033
  H    81.998    6.036   26.389
  H    80.473    9.814   25.813
  H    82.655    5.946   24.109
  H    81.124    9.739   23.521
  H    82.208    7.803   22.660
  N    79.758    6.072   30.189
  C    80.024    5.985   31.623
  C    81.139    4.963   31.887
  O    81.409    4.107   31.038
  C    78.743    5.708   32.435
  C    78.182    4.327   32.301
  C    78.264    3.316   33.225
  C    77.431    3.803   31.199
  N    77.625    2.197   32.757
  C    77.101    2.467   31.519
  C    77.026    4.324   29.965
  C    76.382    1.644   30.650
  C    76.308    3.503   29.100
  C    75.994    2.179   29.449
  H    79.863    5.260   29.614
  H    80.369    6.878   31.913
  H    78.042    6.356   32.136
  H    78.950    5.864   33.401
  H    78.723    3.385   34.111
  H    77.553    1.325   33.240
  H    77.247    5.265   29.710
  H    76.159    0.700   30.894
  H    76.011    3.862   28.215
  H    75.476    1.614   28.807
  N    81.795    5.066   33.043
  C    82.996    4.270   33.306
  C    83.415    4.375   34.755
  O    82.966    5.268   35.472
  C    84.170    4.782   32.472
  C    84.643    6.182   32.919
  C    85.940    6.613   32.276
  O    85.955    7.121   31.153
  N    87.045    6.418   32.986
  H    81.461    5.698   33.743
  H    82.818    3.313   33.079
  H    83.887    4.829   31.514
  H    84.932    4.141   32.563
  H    84.769    6.172   33.911
  H    83.935    6.847   32.680
  H    86.989    6.002   33.894
  H    87.933    6.687   32.613
  N    84.314    3.489   35.169
  C    84.880    3.572   36.515
  C    85.957    4.642   36.569
  O    86.529    5.007   35.534
  C    85.459    2.224   36.928
  H    84.607    2.757   34.554
  H    84.152    3.818   37.155
  H    85.842    2.294   37.849
  H    84.735    1.534   36.920
  H    86.179    1.960   36.286
  N    86.243    5.136   37.776
  C    87.334    6.080   37.971
  C    88.665    5.334   37.966
  O    88.693    4.136   37.682
  C    87.130    6.939   39.241
  C    87.165    6.135   40.541
  O    87.632    4.968   40.563
  O    86.722    6.709   41.567
  H    85.696    4.851   38.563
  H    87.336    6.701   37.187
  H    86.242    7.393   39.175
  H    87.855    7.627   39.276
  N    88.692    2.195   39.910
  C    87.734    1.160   39.570
  C    86.346    1.327   40.170
  O    85.532    0.412   40.101
  H    88.792    2.989   39.310
  H    88.102    0.285   39.884
  H    87.639    1.143   38.575
  N    86.049    2.495   40.727
  C    84.727    2.712   41.321
  C    83.795    3.496   40.397
  O    84.221    4.472   39.768
  C    84.862    3.425   42.687
  H    86.729    3.228   40.741
  H    84.314    1.816   41.483
  H    83.954    3.566   43.080
  H    85.409    2.860   43.305
  H    85.311    4.309   42.559
  N    80.356    5.923   40.134
  C    79.640    6.849   41.010
  C    78.146    6.563   40.952
  O    77.508    6.826   39.938
  C    79.946    8.299   40.606
  C    79.315    9.329   41.545
  O    78.759    8.961   42.601
  O    79.392   10.528   41.217
  H    80.512    6.167   39.177
  H    79.955    6.707   41.948
  H    79.595    8.453   39.682
  H    80.938    8.429   40.612
  N    77.597    6.000   42.029
  C    76.167    5.682   42.078
  C    75.321    6.775   42.732
  O    74.099    6.796   42.592
  C    75.920    4.350   42.801
  C    76.503    3.127   42.097
  S    76.270    3.088   40.300
  C    74.486    3.087   40.133
  H    78.173    5.790   42.819
  H    75.849    5.577   41.136
  H    74.932    4.220   42.886
  H    76.328    4.409   43.712
  H    76.070    2.312   42.483
  H    77.485    3.102   42.282
  H    74.242    3.066   39.163
  H    74.109    2.281   40.589
  H    74.111    3.913   40.553
  N    82.152   10.793   36.036
  C    82.479    9.850   34.971
  C    81.278    9.339   34.214
  O    81.269    8.213   33.709
  C    83.362    8.714   35.487
  C    84.743    9.166   35.793
  C    85.646    9.382   34.761
  C    85.131    9.437   37.093
  C    86.919    9.826   35.022
  C    86.415    9.890   37.369
  C    87.310   10.086   36.332
  H    82.532   11.717   35.993
  H    83.032   10.356   34.309
  H    83.405    7.999   34.790
  H    82.953    8.343   36.321
  H    85.366    9.212   33.816
  H    84.481    9.306   37.841
  H    87.565    9.962   34.271
  H    86.691   10.074   38.312
  H    88.235   10.414   36.523
  N    80.272   10.202   34.131
  C    79.102    9.982   33.299
  C    78.885   11.266   32.498
  O    78.910   12.367   33.051
  C    77.873    9.674   34.162
  C    78.114    8.574   35.199
  C    76.859    8.246   35.985
  N    77.091    7.199   36.975
  C    77.028    5.895   36.714
  N    77.246    5.013   37.688
  N    76.756    5.467   35.478
  H    80.323   11.044   34.668
  H    79.273    9.221   32.674
  H    77.129    9.384   33.560
  H    77.607   10.509   34.643
  H    78.822    8.880   35.835
  H    78.424    7.749   34.727
  H    76.151    7.938   35.349
  H    76.548    9.072   36.455
  H    77.311    7.479   37.909
  H    77.199    4.033   37.495
  H    77.456    5.331   38.613
  H    76.710    4.486   35.287
  H    76.599    6.127   34.744
  N    90.108    4.101   32.772
  C    89.363    3.522   33.900
  C    90.167    2.444   34.624
  O    90.940    1.709   34.005
  C    88.125    2.913   33.246
  C    88.539    2.665   31.780
  C    89.500    3.791   31.466
  H    89.095    4.241   34.541
  H    87.877    2.053   33.693
  H    87.353    3.548   33.292
  H    88.990    1.778   31.685
  H    87.743    2.701   31.176
  H    90.194    3.495   30.810
  H    89.013    4.585   31.101
  N    89.982    2.364   35.935
  C    90.657    1.363   36.733
  C    89.974    0.005   36.658
  O    88.796   -0.103   36.293
  H    89.363    3.009   36.382
  H    90.667    1.665   37.686
  H    91.596    1.269   36.403
  N    90.727   -1.039   36.992
  C    90.181   -2.389   37.066
  C    89.355   -2.616   38.339
  O    89.672   -2.071   39.409
  C    91.308   -3.410   37.036
  C    92.129   -3.540   35.762
  C    93.149   -4.651   35.976
  C    91.231   -3.842   34.581
  H    91.695   -0.894   37.198
  H    89.592   -2.540   36.272
  H    90.902   -4.305   37.219
  H    91.941   -3.174   37.773
  H    92.612   -2.680   35.595
  H    93.704   -4.758   35.151
  H    93.741   -4.416   36.747
  H    92.672   -5.508   36.170
  H    91.786   -3.924   33.753
  H    90.745   -4.701   34.743
  H    90.570   -3.101   34.467
  N    86.613   -6.005   40.278
  C    86.577   -7.475   40.232
  C    85.867   -8.119   39.028
  O    84.753   -7.750   38.649
  C    85.884   -7.852   41.549
  C    86.250   -6.708   42.496
  C    86.188   -5.489   41.598
  H    87.517   -7.814   40.262
  H    84.893   -7.909   41.426
  H    86.228   -8.725   41.895
  H    85.591   -6.637   43.245
  H    87.169   -6.832   42.871
  H    85.258   -5.124   41.556
  H    86.811   -4.777   41.920
  N    86.551   -9.090   38.431
  C    85.976   -9.922   37.398
  C    85.982   -9.361   35.986
  O    85.637  -10.073   35.053
  H    87.499   -9.251   38.707
  H    85.025  -10.102   37.648
  H    86.485  -10.783   37.384
  N    86.370   -8.104   35.810
  C    86.263   -7.495   34.483
  C    87.586   -6.950   33.984
  O    88.384   -6.397   34.748
  C    85.219   -6.366   34.469
  C    83.813   -6.782   34.870
  C    82.790   -6.602   33.759
  N    83.346   -6.857   32.435
  C    83.079   -6.111   31.368
  N    82.256   -5.070   31.476
  N    83.633   -6.405   30.194
  H    86.733   -7.577   36.578
  H    85.960   -8.202   33.844
  H    85.179   -5.993   33.542
  H    85.524   -5.654   35.102
  H    83.530   -6.229   35.654
  H    83.830   -7.747   35.132
  H    82.449   -5.662   33.787
  H    82.033   -7.236   33.916
  H    83.962   -7.637   32.324
  H    82.054   -4.507   30.674
  H    81.840   -4.851   32.359
  H    83.432   -5.843   29.391
  H    84.250   -7.188   30.114
  N    87.793   -7.069   32.679
  C    88.891   -6.373   32.035
  C    88.554   -4.882   31.963
  O    87.450   -4.468   32.324
  C    89.165   -6.922   30.634
  O    90.418   -6.413   30.163
  C    88.051   -6.523   29.679
  H    87.185   -7.645   32.133
  H    89.714   -6.489   32.591
  H    89.214   -7.920   30.679
  H    90.393   -6.336   29.166
  H    88.245   -6.889   28.769
  H    87.182   -6.892   30.008
  H    87.994   -5.526   29.632
  N    89.508   -4.075   31.513
  C    89.316   -2.634   31.458
  C    88.336   -2.236   30.330
  O    88.438   -2.741   29.205
  C    90.672   -1.970   31.246
  C    90.720   -0.556   31.743
  C    92.084    0.055   31.527
  N    93.159   -0.808   32.001
  C    93.622   -0.851   33.244
  N    93.105   -0.076   34.201
  N    94.616   -1.683   33.523
  H    90.376   -4.466   31.206
  H    88.941   -2.326   32.333
  H    90.877   -1.970   30.267
  H    91.366   -2.502   31.732
  H    90.510   -0.547   32.721
  H    90.039   -0.014   31.251
  H    92.129    0.924   32.020
  H    92.211    0.219   30.549
  H    93.583   -1.419   31.333
  H    93.467   -0.122   35.132
  H    92.356    0.551   33.987
  H    94.981   -1.732   34.453
  H    95.001   -2.261   32.804
  N    85.199    1.001   28.831
  C    84.354    2.180   28.946
  C    82.980    1.828   28.384
  O    82.885    1.265   27.290
  C    84.941    3.346   28.131
  C    86.227    3.850   28.784
  C    83.933    4.482   28.012
  C    86.960    4.895   27.923
  H    85.367    0.619   27.922
  H    84.270    2.445   29.907
  H    85.158    3.015   27.213
  H    86.837    3.072   28.931
  H    85.997    4.265   29.664
  H    84.333    5.228   27.480
  H    83.109    4.150   27.553
  H    83.695    4.814   28.925
  H    87.791    5.191   28.394
  H    87.202    4.490   27.041
  H    86.362    5.683   27.775
  N    79.253    2.580   26.711
  C    78.646    3.575   25.834
  C    77.287    3.123   25.289
  O    77.095    1.956   24.909
  C    79.605    3.980   24.672
  C    79.938    2.768   23.776
  C    79.008    5.130   23.830
  H    79.064    1.609   26.563
  H    78.486    4.395   26.384
  H    80.459    4.307   25.077
  H    80.553    3.055   23.041
  H    80.383    2.060   24.325
  H    79.095    2.403   23.381
  H    79.642    5.368   23.094
  H    78.136    4.838   23.437
  H    78.859    5.928   24.414
  N    73.542   -0.487   22.999
  C    74.336   -0.529   24.230
  C    75.571   -1.383   24.016
  O    75.472   -2.525   23.551
  C    73.534   -1.128   25.396
  O    72.390   -0.307   25.653
  C    74.399   -1.226   26.671
  H    72.979   -1.277   22.755
  H    74.618    0.400   24.470
  H    73.226   -2.045   25.141
  H    71.619   -0.628   25.103
  H    73.855   -1.618   27.413
  H    75.190   -1.811   26.493
  H    74.711   -0.313   26.933
  N    76.736   -0.846   24.356
  C    77.969   -1.580   24.095
  C    79.117   -1.125   24.982
  O    78.932   -0.310   25.883
  C    78.344   -1.510   22.577
  O    79.412   -2.410   22.291
  C    78.742   -0.103   22.158
  H    76.768    0.055   24.788
  H    77.792   -2.540   24.311
  H    77.546   -1.786   22.041
  H    79.111   -3.079   21.611
  H    78.974   -0.098   21.185
  H    77.979    0.522   22.322
  H    79.535    0.192   22.691
  N    80.304   -1.667   24.739
  C    81.480   -1.297   25.516
  C    82.715   -1.135   24.634
  O    82.782   -1.699   23.539
  C    81.768   -2.374   26.563
  C    80.616   -2.634   27.495
  C    80.926   -3.706   28.515
  O    82.087   -3.917   28.883
  N    79.887   -4.388   28.987
  H    80.393   -2.343   24.008
  H    81.300   -0.431   25.983
  H    82.555   -2.083   27.107
  H    81.988   -3.226   26.088
  H    79.826   -2.924   26.955
  H    80.397   -1.786   27.978
  H    78.964   -4.183   28.660
  H    80.028   -5.106   29.669
  N    83.697   -0.383   25.120
  C    84.976   -0.272   24.426
  C    86.100   -0.878   25.254
  O    86.158   -0.673   26.470
  C    85.292    1.191   24.122
  C    84.184    1.966   23.403
  C    84.616    3.407   23.173
  C    83.773    1.297   22.082
  H    83.557    0.115   25.976
  H    84.913   -0.770   23.561
  H    86.110    1.217   23.547
  H    85.479    1.653   24.989
  H    83.383    1.979   24.001
  H    83.886    3.903   22.703
  H    84.803    3.843   24.053
  H    85.443    3.421   22.611
  H    83.050    1.834   21.647
  H    84.564    1.248   21.473
  H    83.437    0.373   22.267
  N    87.001   -1.605   24.595
  C    88.102   -2.282   25.287
  C    89.455   -1.710   24.897
  O    89.564   -0.960   23.925
  C    88.077   -3.792   25.029
  C    86.841   -4.463   25.583
  C    86.723   -4.719   26.939
  C    85.791   -4.832   24.752
  C    85.600   -5.329   27.460
  C    84.657   -5.442   25.266
  C    84.572   -5.681   26.630
  O    83.462   -6.286   27.170
  H    86.924   -1.691   23.602
  H    87.981   -2.138   26.269
  H    88.882   -4.202   25.457
  H    88.109   -3.948   24.042
  H    87.467   -4.456   27.553
  H    85.854   -4.655   23.770
  H    85.538   -5.513   28.441
  H    83.908   -5.707   24.659
  H    82.700   -6.551   26.579
  N    90.474   -2.085   25.669
  C    91.829   -1.570   25.539
  C    92.763   -2.648   25.038
  O    92.674   -3.792   25.482
  C    92.332   -1.071   26.911
  C    91.620    0.155   27.386
  C    92.233    1.393   27.327
  C    90.317    0.078   27.849
  C    91.563    2.539   27.738
  C    89.641    1.216   28.274
  C    90.268    2.451   28.213
  H    90.297   -2.763   26.383
  H    91.830   -0.808   24.892
  H    93.307   -0.864   26.836
  H    92.196   -1.799   27.584
  H    93.170    1.465   26.984
  H    89.856   -0.809   27.878
  H    92.018    3.428   27.690
  H    88.706    1.144   28.622
  H    89.785    3.274   28.511
  N    93.666   -8.940   31.140
  C    92.322   -9.434   31.428
  C    91.447   -9.660   30.196
  O    90.364  -10.228   30.291
  C    91.629   -8.552   32.469
  C    92.193   -8.734   33.881
  C    91.451   -7.849   34.862
  N    91.860   -8.103   36.235
  C    91.095   -7.862   37.292
  N    91.554   -8.137   38.505
  N    89.872   -7.358   37.137
  H    93.913   -8.000   31.376
  H    92.440  -10.330   31.855
  H    90.656   -8.781   32.483
  H    91.742   -7.595   32.202
  H    93.162   -8.488   33.883
  H    92.091   -9.690   34.156
  H    90.470   -8.025   34.779
  H    91.638   -6.892   34.640
  H    92.772   -8.482   36.391
  H    90.984   -7.959   39.307
  H    92.470   -8.523   38.618
  H    89.300   -7.178   37.937
  H    89.526   -7.159   36.220
  C    76.978   -5.698   24.862
  H    76.832   -6.674   24.700
  H    78.014   -5.546   25.140
  C    76.060   -5.252   25.990
  O    75.310   -4.285   25.851
  H    76.724   -5.153   23.953
  C    74.310   -2.641   36.928
  H    73.335   -2.769   36.743
  H    74.602   -3.236   37.791
  N    75.101   -3.220   35.839
  H    75.772   -3.895   36.174
  C    74.602   -1.160   37.166
  O    73.790   -0.488   37.794
  C    74.360    2.670   34.362
  H    75.126    3.234   34.054
  H    73.845    2.289   33.486
  N    74.893    1.583   35.172
  H    74.569    0.648   35.029
  H    73.676    3.308   34.952
  C    76.267    8.464   26.385
  H    76.466    9.410   26.641
  H    75.257    8.208   26.684
  C    77.287    7.534   27.023
  O    77.117    6.318   27.001
  H    76.351    8.351   25.307
  C    91.086    5.396   38.171
  H    91.187    5.025   37.248
  H    91.892    6.109   38.322
  N    89.764    6.028   38.246
  H    89.689    6.990   38.510
  H    91.196    4.554   38.878
  C    90.483    3.189   41.203
  H    90.342    3.610   42.099
  H    91.390    2.769   41.171
  C    89.438    2.106   41.004
  O    89.279    1.227   41.849
  H    90.431    3.959   40.447
  C    75.236    8.723   44.157
  H    74.303    8.396   44.305
  H    75.670    8.948   45.137
  N    75.968    7.674   43.460
  H    76.965    7.632   43.531
  H    75.180    9.612   43.507
  C    81.104   11.581   38.088
  H    81.298   12.463   37.658
  H    81.744   11.474   38.949
  C    81.369   10.470   37.060
  O    80.855    9.355   37.186
  H    80.055   11.562   38.373
  C    78.431   12.301   30.365
  H    79.249   12.875   30.347
  H    77.671   12.816   30.762
  N    78.693   11.137   31.194
  H    78.729   10.229   30.776
  H    78.170   12.021   29.335
  C    91.998    5.409   31.897
  H    91.504    5.246   31.043
  H    92.997    4.981   31.828
  C    91.228    4.794   33.057
  O    91.616    4.977   34.207
  H    92.058    6.477   32.084
  C    75.080    3.855   24.554
  H    75.038    2.916   24.213
  H    74.229    4.040   25.195
  N    76.334    4.050   25.278
  H    76.479    4.903   25.779
  H    75.056    4.554   23.701
  C    72.785    0.465   20.869
  H    72.339   -0.429   20.823
  H    73.486    0.553   20.052
  C    73.550    0.577   22.195
  O    74.141    1.619   22.477
  H    72.026    1.244   20.811
  C    94.622   -3.249   23.563
  H    94.136   -4.043   23.198
  H    95.101   -2.689   22.765
  N    93.684   -2.281   24.129
  H    93.843   -1.349   23.775
  H    95.370   -3.558   24.304
  C    95.976   -9.194   30.337
  H    96.435   -9.731   29.630
  H    96.561   -9.214   31.251
  C    94.562   -9.738   30.564
  O    94.289  -10.869   30.177
  H    95.986   -8.135   30.062
  C    91.224   -9.557   27.789
  H    90.283   -9.230   27.871
  H    91.685   -9.055   26.951
  N    91.928   -9.244   29.032
  H    92.776   -8.714   29.004
  H    91.198  -10.647   27.614
  N    87.568   -0.454   46.395
  C    86.356    0.344   46.339
  C    85.315   -0.150   47.319
  O    85.406   -1.271   47.812
  C    85.778    0.326   44.926
  C    85.255   -1.025   44.507
  C    84.809   -0.988   43.049
  N    84.033   -2.173   42.709
  C    83.435   -2.373   41.539
  N    83.519   -1.466   40.565
  N    82.757   -3.491   41.343
  H    87.511   -1.452   46.378
  H    86.588    1.288   46.574
  H    86.497    0.599   44.287
  H    85.026    0.984   44.883
  H    84.477   -1.271   45.084
  H    85.979   -1.707   44.614
  H    85.617   -0.947   42.461
  H    84.246   -0.175   42.900
  H    83.944   -2.886   43.405
  H    83.064   -1.629   39.689
  H    84.037   -0.623   40.710
  H    82.303   -3.653   40.467
  H    82.699   -4.174   42.071
  N    91.287   -5.158   44.355
  C    91.620   -5.735   43.055
  C    93.114   -5.613   42.793
  O    93.665   -4.515   42.901
  C    90.895   -4.993   41.931
  O    89.498   -5.306   41.967
  C    91.470   -5.383   40.584
  H    91.632   -4.246   44.577
  H    91.357   -6.700   43.041
  H    91.012   -4.009   42.062
  H    89.028   -4.819   41.231
  H    90.987   -4.891   39.860
  H    92.442   -5.148   40.556
  H    91.361   -6.368   40.448
  C    89.970   -0.761   46.515
  H    89.677   -1.707   46.377
  H    90.422   -0.675   47.502
  C    88.748    0.140   46.469
  O    88.868    1.360   46.515
  H    90.671   -0.494   45.727
  C    83.238    0.334   48.495
  H    83.629    0.053   49.371
  H    82.585    1.178   48.669
  N    84.329    0.696   47.601
  H    84.337    1.607   47.188
  H    82.651   -0.497   48.098
  C    90.281   -5.050   46.550
  H    90.966   -5.319   47.227
  H    90.348   -4.067   46.381
  C    90.544   -5.795   45.255
  O    90.072   -6.916   45.069
  H    89.294   -5.276   46.936
  C    95.196   -6.766   42.166
  H    95.433   -5.931   41.669
  H    95.795   -6.812   43.066
  N    93.759   -6.735   42.470
  H    93.243   -7.591   42.433
  H    95.454   -7.634   41.536
