SO4_A_502
prProtoss 05082411223D 1   1.00000     0.00000     0
Protoss beta proteinsplus
  5  4  0  0  0  0            999 V2000
   17.5260   12.9360   46.4290 S   0  0  0  0  0  0  0  0  0  0  0  0
   18.8880   12.7190   46.0070 O   0  0  0  0  0  0  0  0  0  0  0  0
   16.6300   12.4180   45.4180 O   0  0  0  0  0  0  0  0  0  0  0  0
   17.3040   12.2950   47.6970 O   0  5  0  0  0  0  0  0  0  0  0  0
   17.3160   14.3790   46.6020 O   0  5  0  0  0  0  0  0  0  0  0  0
  1  2  2  0  0  0  0
  1  3  2  0  0  0  0
  1  4  1  0  0  0  0
  1  5  1  0  0  0  0
M  CHG  2   4  -1   5  -1
M  END
$$$$
SO4_A_503
prProtoss 05082411223D 1   1.00000     0.00000     0
Protoss beta proteinsplus
  5  4  0  0  0  0            999 V2000
   24.0460    7.2270   23.1060 S   0  0  0  0  0  0  0  0  0  0  0  0
   24.7820    6.0830   22.5710 O   0  0  0  0  0  0  0  0  0  0  0  0
   22.6720    7.2760   22.6130 O   0  0  0  0  0  0  0  0  0  0  0  0
   23.9900    7.0950   24.5560 O   0  5  0  0  0  0  0  0  0  0  0  0
   24.7070    8.4580   22.6520 O   0  5  0  0  0  0  0  0  0  0  0  0
  1  2  2  0  0  0  0
  1  3  2  0  0  0  0
  1  4  1  0  0  0  0
  1  5  1  0  0  0  0
M  CHG  2   4  -1   5  -1
M  END
$$$$
SO4_A_504
prProtoss 05082411223D 1   1.00000     0.00000     0
Protoss beta proteinsplus
  5  4  0  0  0  0            999 V2000
   20.5830   -2.5460   45.4070 S   0  0  0  0  0  0  0  0  0  0  0  0
   20.6730   -2.9850   44.0220 O   0  0  0  0  0  0  0  0  0  0  0  0
   19.2480   -2.8520   45.9120 O   0  0  0  0  0  0  0  0  0  0  0  0
   21.5320   -3.2430   46.2520 O   0  5  0  0  0  0  0  0  0  0  0  0
   20.8430   -1.1160   45.5250 O   0  5  0  0  0  0  0  0  0  0  0  0
  1  2  2  0  0  0  0
  1  3  2  0  0  0  0
  1  4  1  0  0  0  0
  1  5  1  0  0  0  0
M  CHG  2   4  -1   5  -1
M  END
$$$$
BCN_A_505
prProtoss 05082411223D 1   1.00000     0.00000     0
Protoss beta proteinsplus
 23 22  0  0  0  0            999 V2000
   16.7690   15.5720   43.8420 O   0  0  0  0  0  0  0  0  0  0  0  0
   22.8260   14.3260   43.7840 O   0  0  0  0  0  0  0  0  0  0  0  0
   21.9150   16.4830   40.3680 O   0  0  0  0  0  0  0  0  0  0  0  0
   22.5900   16.7850   42.4780 O   0  5  0  0  0  0  0  0  0  0  0  0
   20.3480   15.3820   43.2570 N   0  0  0  0  0  0  0  0  0  0  0  0
   17.9080   15.0190   43.2490 C   0  0  0  0  0  0  0  0  0  0  0  0
   21.9980   13.5300   42.9100 C   0  0  0  0  0  0  0  0  0  0  0  0
   19.0870   15.6790   43.9500 C   0  0  0  0  0  0  0  0  0  0  0  0
   20.5230   13.9180   43.0510 C   0  0  0  0  0  0  0  0  0  0  0  0
   20.3350   16.1100   41.9860 C   0  0  0  0  0  0  0  0  0  0  0  0
   21.7220   16.5070   41.5980 C   0  0  0  0  0  0  0  0  0  0  0  0
   16.7723   15.3711   44.8216 H   0  0  0  0  0  0  0  0  0  0  0  0
   22.9136   13.8679   44.6686 H   0  0  0  0  0  0  0  0  0  0  0  0
   17.9256   15.2201   42.2696 H   0  0  0  0  0  0  0  0  0  0  0  0
   17.9286   14.0287   43.3864 H   0  0  0  0  0  0  0  0  0  0  0  0
   22.1065   12.5643   43.1461 H   0  0  0  0  0  0  0  0  0  0  0  0
   22.2859   13.6761   41.9636 H   0  0  0  0  0  0  0  0  0  0  0  0
   18.9468   16.6690   43.9630 H   0  0  0  0  0  0  0  0  0  0  0  0
   19.1418   15.3378   44.8884 H   0  0  0  0  0  0  0  0  0  0  0  0
   20.0375   13.6488   42.2192 H   0  0  0  0  0  0  0  0  0  0  0  0
   20.1353   13.4331   43.8349 H   0  0  0  0  0  0  0  0  0  0  0  0
   19.7722   16.9310   42.0824 H   0  0  0  0  0  0  0  0  0  0  0  0
   19.9491   15.5231   41.2742 H   0  0  0  0  0  0  0  0  0  0  0  0
  1  6  1  0  0  0  0
  2  7  1  0  0  0  0
  3 11  2  0  0  0  0
  4 11  1  0  0  0  0
  5  8  1  0  0  0  0
  5  9  1  0  0  0  0
  5 10  1  0  0  0  0
  6  8  1  0  0  0  0
  7  9  1  0  0  0  0
 10 11  1  0  0  0  0
  1 12  1  0  0  0  0
  2 13  1  0  0  0  0
 10 23  1  0  0  0  0
  6 14  1  0  0  0  0
  6 15  1  0  0  0  0
  7 16  1  0  0  0  0
  7 17  1  0  0  0  0
  8 18  1  0  0  0  0
  8 19  1  0  0  0  0
  9 20  1  0  0  0  0
  9 21  1  0  0  0  0
 10 22  1  0  0  0  0
M  CHG  1   4  -1
M  END
$$$$
GOL_A_506
prProtoss 05082411223D 1   1.00000     0.00000     0
Protoss beta proteinsplus
 14 13  0  0  0  0            999 V2000
    5.5820   36.4810   58.6530 O   0  0  0  0  0  0  0  0  0  0  0  0
    7.9210   38.7800   55.4770 O   0  0  0  0  0  0  0  0  0  0  0  0
    6.8110   36.0880   56.4160 O   0  0  0  0  0  0  0  0  0  0  0  0
    6.9620   36.8360   58.6460 C   0  0  0  0  0  0  0  0  0  0  0  0
    7.2460   38.4680   56.6920 C   0  0  0  0  0  0  0  0  0  0  0  0
    7.4800   37.0330   57.2180 C   0  0  0  0  0  0  0  0  0  0  0  0
    5.3891   35.9086   59.4500 H   0  0  0  0  0  0  0  0  0  0  0  0
    7.7138   39.7220   55.2130 H   0  0  0  0  0  0  0  0  0  0  0  0
    5.9064   35.9050   56.8009 H   0  0  0  0  0  0  0  0  0  0  0  0
    7.4877   36.1076   59.0854 H   0  0  0  0  0  0  0  0  0  0  0  0
    7.0816   37.6878   59.1561 H   0  0  0  0  0  0  0  0  0  0  0  0
    6.2646   38.5873   56.5414 H   0  0  0  0  0  0  0  0  0  0  0  0
    7.5561   39.1101   57.3931 H   0  0  0  0  0  0  0  0  0  0  0  0
    8.4605   36.8372   57.1994 H   0  0  0  0  0  0  0  0  0  0  0  0
  1  4  1  0  0  0  0
  2  5  1  0  0  0  0
  3  6  1  0  0  0  0
  4  6  1  0  0  0  0
  5  6  1  0  0  0  0
  1  7  1  0  0  0  0
  2  8  1  0  0  0  0
  3  9  1  0  0  0  0
  4 10  1  0  0  0  0
  4 11  1  0  0  0  0
  5 12  1  0  0  0  0
  5 13  1  0  0  0  0
  6 14  1  0  0  0  0
M  END
$$$$
GOL_A_507
prProtoss 05082411223D 1   1.00000     0.00000     0
Protoss beta proteinsplus
 14 13  0  0  0  0            999 V2000
   35.9600   16.3510   62.3440 O   0  0  0  0  0  0  0  0  0  0  0  0
   38.0410   19.2160   64.4300 O   0  0  0  0  0  0  0  0  0  0  0  0
   36.0130   16.2920   64.8230 O   0  0  0  0  0  0  0  0  0  0  0  0
   36.8930   17.2740   62.8490 C   0  0  0  0  0  0  0  0  0  0  0  0
   37.4660   18.1780   65.1860 C   0  0  0  0  0  0  0  0  0  0  0  0
   37.1470   16.9590   64.3150 C   0  0  0  0  0  0  0  0  0  0  0  0
   36.0512   15.4835   62.8330 H   0  0  0  0  0  0  0  0  0  0  0  0
   38.6577   19.7485   65.0098 H   0  0  0  0  0  0  0  0  0  0  0  0
   35.6242   16.8221   65.5766 H   0  0  0  0  0  0  0  0  0  0  0  0
   36.5294   18.2015   62.7623 H   0  0  0  0  0  0  0  0  0  0  0  0
   37.7486   17.2021   62.3363 H   0  0  0  0  0  0  0  0  0  0  0  0
   36.6197   18.5099   65.6028 H   0  0  0  0  0  0  0  0  0  0  0  0
   38.1066   17.9056   65.9039 H   0  0  0  0  0  0  0  0  0  0  0  0
   37.9235   16.3310   64.3661 H   0  0  0  0  0  0  0  0  0  0  0  0
  1  4  1  0  0  0  0
  2  5  1  0  0  0  0
  3  6  1  0  0  0  0
  4  6  1  0  0  0  0
  5  6  1  0  0  0  0
  1  7  1  0  0  0  0
  2  8  1  0  0  0  0
  3  9  1  0  0  0  0
  4 10  1  0  0  0  0
  4 11  1  0  0  0  0
  5 12  1  0  0  0  0
  5 13  1  0  0  0  0
  6 14  1  0  0  0  0
M  END
$$$$
GOL_A_508
prProtoss 05082411223D 1   1.00000     0.00000     0
Protoss beta proteinsplus
 14 13  0  0  0  0            999 V2000
   20.4130   10.0050   48.6250 O   0  0  0  0  0  0  0  0  0  0  0  0
   20.0700    6.3240   46.1410 O   0  0  0  0  0  0  0  0  0  0  0  0
   20.5050    7.1840   49.5590 O   0  0  0  0  0  0  0  0  0  0  0  0
   19.5160    8.9630   48.3190 C   0  0  0  0  0  0  0  0  0  0  0  0
   19.4630    6.6120   47.3900 C   0  0  0  0  0  0  0  0  0  0  0  0
   20.2470    7.6250   48.2390 C   0  0  0  0  0  0  0  0  0  0  0  0
   20.4724   10.1131   49.6174 H   0  0  0  0  0  0  0  0  0  0  0  0
   20.2790    5.3475   46.0893 H   0  0  0  0  0  0  0  0  0  0  0  0
   20.6167    7.9760   50.1592 H   0  0  0  0  0  0  0  0  0  0  0  0
   19.0814    9.1524   47.4385 H   0  0  0  0  0  0  0  0  0  0  0  0
   18.8166    8.9124   49.0319 H   0  0  0  0  0  0  0  0  0  0  0  0
   19.3853    5.7597   47.9072 H   0  0  0  0  0  0  0  0  0  0  0  0
   18.5501    6.9827   47.2193 H   0  0  0  0  0  0  0  0  0  0  0  0
   21.1272    7.7833   47.7915 H   0  0  0  0  0  0  0  0  0  0  0  0
  1  4  1  0  0  0  0
  2  5  1  0  0  0  0
  3  6  1  0  0  0  0
  4  6  1  0  0  0  0
  5  6  1  0  0  0  0
  1  7  1  0  0  0  0
  2  8  1  0  0  0  0
  3  9  1  0  0  0  0
  4 10  1  0  0  0  0
  4 11  1  0  0  0  0
  5 12  1  0  0  0  0
  5 13  1  0  0  0  0
  6 14  1  0  0  0  0
M  END
$$$$
GOL_A_509
prProtoss 05082411223D 1   1.00000     0.00000     0
Protoss beta proteinsplus
 14 13  0  0  0  0            999 V2000
   33.7130   19.3490   30.9940 O   0  0  0  0  0  0  0  0  0  0  0  0
   37.9180   19.7310   32.2200 O   0  0  0  0  0  0  0  0  0  0  0  0
   35.3110   17.3330   31.3120 O   0  0  0  0  0  0  0  0  0  0  0  0
   34.6860   19.4080   32.0310 C   0  0  0  0  0  0  0  0  0  0  0  0
   37.0630   18.6190   32.4230 C   0  0  0  0  0  0  0  0  0  0  0  0
   35.8510   18.6220   31.4900 C   0  0  0  0  0  0  0  0  0  0  0  0
   33.1297   18.5481   31.1294 H   0  0  0  0  0  0  0  0  0  0  0  0
   37.3800   20.5112   31.9009 H   0  0  0  0  0  0  0  0  0  0  0  0
   36.0161   16.7233   30.9498 H   0  0  0  0  0  0  0  0  0  0  0  0
   34.3359   18.9912   32.8699 H   0  0  0  0  0  0  0  0  0  0  0  0
   34.9515   20.3544   32.2147 H   0  0  0  0  0  0  0  0  0  0  0  0
   36.7378   18.6349   33.3685 H   0  0  0  0  0  0  0  0  0  0  0  0
   37.5857   17.7814   32.2643 H   0  0  0  0  0  0  0  0  0  0  0  0
   36.1180   18.9949   30.6014 H   0  0  0  0  0  0  0  0  0  0  0  0
  1  4  1  0  0  0  0
  2  5  1  0  0  0  0
  3  6  1  0  0  0  0
  4  6  1  0  0  0  0
  5  6  1  0  0  0  0
  1  7  1  0  0  0  0
  2  8  1  0  0  0  0
  3  9  1  0  0  0  0
  4 10  1  0  0  0  0
  4 11  1  0  0  0  0
  5 12  1  0  0  0  0
  5 13  1  0  0  0  0
  6 14  1  0  0  0  0
M  END
$$$$
GOL_A_510
prProtoss 05082411223D 1   1.00000     0.00000     0
Protoss beta proteinsplus
 14 13  0  0  0  0            999 V2000
   20.5050    3.9580   56.8090 O   0  0  0  0  0  0  0  0  0  0  0  0
   22.4750    0.2140   59.2860 O   0  0  0  0  0  0  0  0  0  0  0  0
   22.2480    3.0940   58.7870 O   0  0  0  0  0  0  0  0  0  0  0  0
   20.7770    2.5670   56.9000 C   0  0  0  0  0  0  0  0  0  0  0  0
   22.1280    0.8240   58.0560 C   0  0  0  0  0  0  0  0  0  0  0  0
   21.3630    2.1320   58.2470 C   0  0  0  0  0  0  0  0  0  0  0  0
   19.8446    4.2154   57.5144 H   0  0  0  0  0  0  0  0  0  0  0  0
   22.9721   -0.6353   59.1083 H   0  0  0  0  0  0  0  0  0  0  0  0
   22.6030    2.7661   59.6625 H   0  0  0  0  0  0  0  0  0  0  0  0
   21.4294    2.3267   56.1812 H   0  0  0  0  0  0  0  0  0  0  0  0
   19.9220    2.0694   56.7539 H   0  0  0  0  0  0  0  0  0  0  0  0
   21.5559    0.1911   57.5343 H   0  0  0  0  0  0  0  0  0  0  0  0
   22.9661    1.0144   57.5448 H   0  0  0  0  0  0  0  0  0  0  0  0
   20.6150    1.9797   58.8929 H   0  0  0  0  0  0  0  0  0  0  0  0
  1  4  1  0  0  0  0
  2  5  1  0  0  0  0
  3  6  1  0  0  0  0
  4  6  1  0  0  0  0
  5  6  1  0  0  0  0
  1  7  1  0  0  0  0
  2  8  1  0  0  0  0
  3  9  1  0  0  0  0
  4 10  1  0  0  0  0
  4 11  1  0  0  0  0
  5 12  1  0  0  0  0
  5 13  1  0  0  0  0
  6 14  1  0  0  0  0
M  END
$$$$
GOL_A_511
prProtoss 05082411223D 1   1.00000     0.00000     0
Protoss beta proteinsplus
 14 13  0  0  0  0            999 V2000
   22.0750   40.2730   56.8410 O   0  0  0  0  0  0  0  0  0  0  0  0
   20.7430   36.9330   53.6860 O   0  0  0  0  0  0  0  0  0  0  0  0
   20.1680   39.1590   55.3850 O   0  0  0  0  0  0  0  0  0  0  0  0
   22.4890   39.1040   56.1630 C   0  0  0  0  0  0  0  0  0  0  0  0
   21.7340   37.7820   54.2030 C   0  0  0  0  0  0  0  0  0  0  0  0
   21.3090   38.3390   55.5550 C   0  0  0  0  0  0  0  0  0  0  0  0
   21.0804   40.3584   56.7813 H   0  0  0  0  0  0  0  0  0  0  0  0
   19.8915   37.4449   53.5727 H   0  0  0  0  0  0  0  0  0  0  0  0
   19.6371   38.8335   54.6026 H   0  0  0  0  0  0  0  0  0  0  0  0
   22.9610   38.5061   56.8108 H   0  0  0  0  0  0  0  0  0  0  0  0
   23.1174   39.3627   55.4294 H   0  0  0  0  0  0  0  0  0  0  0  0
   21.8825   38.5395   53.5672 H   0  0  0  0  0  0  0  0  0  0  0  0
   22.5841   37.2669   54.3121 H   0  0  0  0  0  0  0  0  0  0  0  0
   21.0725   37.5774   56.1583 H   0  0  0  0  0  0  0  0  0  0  0  0
  1  4  1  0  0  0  0
  2  5  1  0  0  0  0
  3  6  1  0  0  0  0
  4  6  1  0  0  0  0
  5  6  1  0  0  0  0
  1  7  1  0  0  0  0
  2  8  1  0  0  0  0
  3  9  1  0  0  0  0
  4 10  1  0  0  0  0
  4 11  1  0  0  0  0
  5 12  1  0  0  0  0
  5 13  1  0  0  0  0
  6 14  1  0  0  0  0
M  END
$$$$
GOL_A_512
prProtoss 05082411223D 1   1.00000     0.00000     0
Protoss beta proteinsplus
 14 13  0  0  0  0            999 V2000
   34.3460   17.2130   22.6700 O   0  0  0  0  0  0  0  0  0  0  0  0
   35.7750   14.2170   19.5070 O   0  0  0  0  0  0  0  0  0  0  0  0
   33.4970   15.3930   19.9540 O   0  0  0  0  0  0  0  0  0  0  0  0
   34.7590   16.8220   21.3830 C   0  0  0  0  0  0  0  0  0  0  0  0
   35.4970   14.4310   20.8850 C   0  0  0  0  0  0  0  0  0  0  0  0
   34.3280   15.3940   21.0880 C   0  0  0  0  0  0  0  0  0  0  0  0
   34.9928   17.8803   23.0393 H   0  0  0  0  0  0  0  0  0  0  0  0
   35.6719   13.2456   19.2931 H   0  0  0  0  0  0  0  0  0  0  0  0
   33.9082   14.8264   19.2399 H   0  0  0  0  0  0  0  0  0  0  0  0
   35.7556   16.8820   21.3262 H   0  0  0  0  0  0  0  0  0  0  0  0
   34.3491   17.4344   20.7070 H   0  0  0  0  0  0  0  0  0  0  0  0
   36.3105   14.8132   21.3233 H   0  0  0  0  0  0  0  0  0  0  0  0
   35.2708   13.5541   21.3091 H   0  0  0  0  0  0  0  0  0  0  0  0
   33.7902   15.0671   21.8651 H   0  0  0  0  0  0  0  0  0  0  0  0
  1  4  1  0  0  0  0
  2  5  1  0  0  0  0
  3  6  1  0  0  0  0
  4  6  1  0  0  0  0
  5  6  1  0  0  0  0
  1  7  1  0  0  0  0
  2  8  1  0  0  0  0
  3  9  1  0  0  0  0
  4 10  1  0  0  0  0
  4 11  1  0  0  0  0
  5 12  1  0  0  0  0
  5 13  1  0  0  0  0
  6 14  1  0  0  0  0
M  END
$$$$
GOL_A_513
prProtoss 05082411223D 1   1.00000     0.00000     0
Protoss beta proteinsplus
 14 13  0  0  0  0            999 V2000
   21.5410   16.5140   36.0290 O   0  0  0  0  0  0  0  0  0  0  0  0
   21.3890   13.1260   39.4850 O   0  0  0  0  0  0  0  0  0  0  0  0
   20.7340   15.6710   38.4700 O   0  0  0  0  0  0  0  0  0  0  0  0
   21.5660   15.1110   36.2470 C   0  0  0  0  0  0  0  0  0  0  0  0
   21.5110   13.3980   38.1060 C   0  0  0  0  0  0  0  0  0  0  0  0
   20.8110   14.6370   37.5190 C   0  0  0  0  0  0  0  0  0  0  0  0
   22.3265   16.9358   36.4820 H   0  0  0  0  0  0  0  0  0  0  0  0
   22.2961   13.1246   39.9060 H   0  0  0  0  0  0  0  0  0  0  0  0
   21.5310   15.6297   39.0725 H   0  0  0  0  0  0  0  0  0  0  0  0
   22.5210   14.8254   36.3273 H   0  0  0  0  0  0  0  0  0  0  0  0
   21.1504   14.6653   35.4541 H   0  0  0  0  0  0  0  0  0  0  0  0
   21.1526   12.6018   37.6185 H   0  0  0  0  0  0  0  0  0  0  0  0
   22.4873   13.4954   37.9129 H   0  0  0  0  0  0  0  0  0  0  0  0
   19.8810   14.3795   37.2566 H   0  0  0  0  0  0  0  0  0  0  0  0
  1  4  1  0  0  0  0
  2  5  1  0  0  0  0
  3  6  1  0  0  0  0
  4  6  1  0  0  0  0
  5  6  1  0  0  0  0
  1  7  1  0  0  0  0
  2  8  1  0  0  0  0
  3  9  1  0  0  0  0
  4 10  1  0  0  0  0
  4 11  1  0  0  0  0
  5 12  1  0  0  0  0
  5 13  1  0  0  0  0
  6 14  1  0  0  0  0
M  END
$$$$
GOL_A_514
prProtoss 05082411223D 1   1.00000     0.00000     0
Protoss beta proteinsplus
 14 13  0  0  0  0            999 V2000
   36.1820   13.8430   27.1060 O   0  0  0  0  0  0  0  0  0  0  0  0
   35.1400    9.7560   26.8060 O   0  0  0  0  0  0  0  0  0  0  0  0
   38.1800   11.4630   27.6860 O   0  0  0  0  0  0  0  0  0  0  0  0
   36.5410   12.6830   26.3640 C   0  0  0  0  0  0  0  0  0  0  0  0
   36.4840   10.1560   26.5740 C   0  0  0  0  0  0  0  0  0  0  0  0
   36.8300   11.4790   27.2680 C   0  0  0  0  0  0  0  0  0  0  0  0
   35.2649   14.1389   26.8389 H   0  0  0  0  0  0  0  0  0  0  0  0
   34.6862   10.4327   27.3858 H   0  0  0  0  0  0  0  0  0  0  0  0
   38.3379   10.6686   28.2726 H   0  0  0  0  0  0  0  0  0  0  0  0
   37.3599   12.8856   25.8271 H   0  0  0  0  0  0  0  0  0  0  0  0
   35.7882   12.4494   25.7486 H   0  0  0  0  0  0  0  0  0  0  0  0
   36.6210   10.2647   25.5894 H   0  0  0  0  0  0  0  0  0  0  0  0
   37.0949    9.4434   26.9189 H   0  0  0  0  0  0  0  0  0  0  0  0
   36.2556   11.5597   28.0826 H   0  0  0  0  0  0  0  0  0  0  0  0
  1  4  1  0  0  0  0
  2  5  1  0  0  0  0
  3  6  1  0  0  0  0
  4  6  1  0  0  0  0
  5  6  1  0  0  0  0
  1  7  1  0  0  0  0
  2  8  1  0  0  0  0
  3  9  1  0  0  0  0
  4 10  1  0  0  0  0
  4 11  1  0  0  0  0
  5 12  1  0  0  0  0
  5 13  1  0  0  0  0
  6 14  1  0  0  0  0
M  END
$$$$
GOL_A_515
prProtoss 05082411223D 1   1.00000     0.00000     0
Protoss beta proteinsplus
 14 13  0  0  0  0            999 V2000
   21.7200    3.1330   35.0360 O   0  0  0  0  0  0  0  0  0  0  0  0
   22.5320   -1.4270   35.1850 O   0  0  0  0  0  0  0  0  0  0  0  0
   22.9520    1.2830   33.5420 O   0  0  0  0  0  0  0  0  0  0  0  0
   22.4240    2.1570   35.7620 C   0  0  0  0  0  0  0  0  0  0  0  0
   21.8220   -0.2100   35.0470 C   0  0  0  0  0  0  0  0  0  0  0  0
   22.8140    0.9480   34.9040 C   0  0  0  0  0  0  0  0  0  0  0  0
   22.0139    3.1141   34.0803 H   0  0  0  0  0  0  0  0  0  0  0  0
   23.1127   -1.3838   35.9980 H   0  0  0  0  0  0  0  0  0  0  0  0
   23.2060    0.4674   33.0222 H   0  0  0  0  0  0  0  0  0  0  0  0
   21.8478    1.8416   36.5160 H   0  0  0  0  0  0  0  0  0  0  0  0
   23.2570    2.5706   36.1295 H   0  0  0  0  0  0  0  0  0  0  0  0
   21.2527   -0.0629   35.8558 H   0  0  0  0  0  0  0  0  0  0  0  0
   21.2413   -0.2535   34.2340 H   0  0  0  0  0  0  0  0  0  0  0  0
   23.7036    0.6242   35.2263 H   0  0  0  0  0  0  0  0  0  0  0  0
  1  4  1  0  0  0  0
  2  5  1  0  0  0  0
  3  6  1  0  0  0  0
  4  6  1  0  0  0  0
  5  6  1  0  0  0  0
  1  7  1  0  0  0  0
  2  8  1  0  0  0  0
  3  9  1  0  0  0  0
  4 10  1  0  0  0  0
  4 11  1  0  0  0  0
  5 12  1  0  0  0  0
  5 13  1  0  0  0  0
  6 14  1  0  0  0  0
M  END
$$$$
GOL_A_516
prProtoss 05082411223D 1   1.00000     0.00000     0
Protoss beta proteinsplus
 14 13  0  0  0  0            999 V2000
   34.8440   35.1480   50.6680 O   0  0  0  0  0  0  0  0  0  0  0  0
   35.7440   31.0180   51.2070 O   0  0  0  0  0  0  0  0  0  0  0  0
   33.0630   33.4090   52.2710 O   0  0  0  0  0  0  0  0  0  0  0  0
   35.2480   34.0650   51.4860 C   0  0  0  0  0  0  0  0  0  0  0  0
   34.7760   31.6510   52.0540 C   0  0  0  0  0  0  0  0  0  0  0  0
   34.1770   32.9630   51.5030 C   0  0  0  0  0  0  0  0  0  0  0  0
   35.5545   35.8517   50.6718 H   0  0  0  0  0  0  0  0  0  0  0  0
   36.2225   31.7130   50.6703 H   0  0  0  0  0  0  0  0  0  0  0  0
   32.3618   32.6962   52.2862 H   0  0  0  0  0  0  0  0  0  0  0  0
   35.3931   34.3952   52.4187 H   0  0  0  0  0  0  0  0  0  0  0  0
   36.1022   33.6862   51.1298 H   0  0  0  0  0  0  0  0  0  0  0  0
   35.2166   31.8554   52.9281 H   0  0  0  0  0  0  0  0  0  0  0  0
   34.0257   31.0065   52.2015 H   0  0  0  0  0  0  0  0  0  0  0  0
   33.8716   32.8028   50.5644 H   0  0  0  0  0  0  0  0  0  0  0  0
  1  4  1  0  0  0  0
  2  5  1  0  0  0  0
  3  6  1  0  0  0  0
  4  6  1  0  0  0  0
  5  6  1  0  0  0  0
  1  7  1  0  0  0  0
  2  8  1  0  0  0  0
  3  9  1  0  0  0  0
  4 10  1  0  0  0  0
  4 11  1  0  0  0  0
  5 12  1  0  0  0  0
  5 13  1  0  0  0  0
  6 14  1  0  0  0  0
M  END
$$$$
GOL_A_517
prProtoss 05082411223D 1   1.00000     0.00000     0
Protoss beta proteinsplus
 14 13  0  0  0  0            999 V2000
   32.1590   31.5130   36.0090 O   0  0  0  0  0  0  0  0  0  0  0  0
   31.3670   34.1920   39.1140 O   0  0  0  0  0  0  0  0  0  0  0  0
   32.1640   30.6250   38.9660 O   0  0  0  0  0  0  0  0  0  0  0  0
   32.6140   32.1850   37.1680 C   0  0  0  0  0  0  0  0  0  0  0  0
   31.9950   32.9630   39.4470 C   0  0  0  0  0  0  0  0  0  0  0  0
   31.7810   31.8630   38.4060 C   0  0  0  0  0  0  0  0  0  0  0  0
   31.7430   30.6420   36.2704 H   0  0  0  0  0  0  0  0  0  0  0  0
   31.5461   34.8634   39.8331 H   0  0  0  0  0  0  0  0  0  0  0  0
   32.0303   29.8986   38.2919 H   0  0  0  0  0  0  0  0  0  0  0  0
   32.5724   33.1704   37.0027 H   0  0  0  0  0  0  0  0  0  0  0  0
   33.5613   31.9159   37.3418 H   0  0  0  0  0  0  0  0  0  0  0  0
   31.6267   32.6467   40.3212 H   0  0  0  0  0  0  0  0  0  0  0  0
   32.9776   33.1248   39.5383 H   0  0  0  0  0  0  0  0  0  0  0  0
   30.8137   31.8281   38.1548 H   0  0  0  0  0  0  0  0  0  0  0  0
  1  4  1  0  0  0  0
  2  5  1  0  0  0  0
  3  6  1  0  0  0  0
  4  6  1  0  0  0  0
  5  6  1  0  0  0  0
  1  7  1  0  0  0  0
  2  8  1  0  0  0  0
  3  9  1  0  0  0  0
  4 10  1  0  0  0  0
  4 11  1  0  0  0  0
  5 12  1  0  0  0  0
  5 13  1  0  0  0  0
  6 14  1  0  0  0  0
M  END
$$$$
GOL_A_518
prProtoss 05082411223D 1   1.00000     0.00000     0
Protoss beta proteinsplus
 14 13  0  0  0  0            999 V2000
   25.8350   13.2720   65.0120 O   0  0  0  0  0  0  0  0  0  0  0  0
   22.6820   15.6720   67.7940 O   0  0  0  0  0  0  0  0  0  0  0  0
   25.2930   13.6830   67.7080 O   0  0  0  0  0  0  0  0  0  0  0  0
   24.5690   13.8030   65.3650 C   0  0  0  0  0  0  0  0  0  0  0  0
   23.0540   14.4150   67.2610 C   0  0  0  0  0  0  0  0  0  0  0  0
   24.5080   14.4120   66.7770 C   0  0  0  0  0  0  0  0  0  0  0  0
   26.3002   12.9445   65.8344 H   0  0  0  0  0  0  0  0  0  0  0  0
   22.4082   15.5611   68.7494 H   0  0  0  0  0  0  0  0  0  0  0  0
   25.2250   14.1115   68.6090 H   0  0  0  0  0  0  0  0  0  0  0  0
   23.8949   13.0663   65.3125 H   0  0  0  0  0  0  0  0  0  0  0  0
   24.3343   14.5172   64.7056 H   0  0  0  0  0  0  0  0  0  0  0  0
   22.4552   14.2002   66.4894 H   0  0  0  0  0  0  0  0  0  0  0  0
   22.9471   13.7180   67.9700 H   0  0  0  0  0  0  0  0  0  0  0  0
   24.8401   15.3545   66.7393 H   0  0  0  0  0  0  0  0  0  0  0  0
  1  4  1  0  0  0  0
  2  5  1  0  0  0  0
  3  6  1  0  0  0  0
  4  6  1  0  0  0  0
  5  6  1  0  0  0  0
  1  7  1  0  0  0  0
  2  8  1  0  0  0  0
  3  9  1  0  0  0  0
  4 10  1  0  0  0  0
  4 11  1  0  0  0  0
  5 12  1  0  0  0  0
  5 13  1  0  0  0  0
  6 14  1  0  0  0  0
M  END
$$$$
GOL_A_519
prProtoss 05082411223D 1   1.00000     0.00000     0
Protoss beta proteinsplus
 14 13  0  0  0  0            999 V2000
   12.5840   27.3310   66.8590 O   0  0  0  0  0  0  0  0  0  0  0  0
    9.7010   28.8550   65.9640 O   0  0  0  0  0  0  0  0  0  0  0  0
    9.6910   25.2980   66.1450 O   0  0  0  0  0  0  0  0  0  0  0  0
   11.6770   26.2700   66.9840 C   0  0  0  0  0  0  0  0  0  0  0  0
    9.5460   27.6380   66.6610 C   0  0  0  0  0  0  0  0  0  0  0  0
   10.4310   26.5050   66.1230 C   0  0  0  0  0  0  0  0  0  0  0  0
   12.8669   27.4169   65.9037 H   0  0  0  0  0  0  0  0  0  0  0  0
   10.6335   28.9191   65.6085 H   0  0  0  0  0  0  0  0  0  0  0  0
   10.2492   24.5579   65.7700 H   0  0  0  0  0  0  0  0  0  0  0  0
   11.4013   26.1871   67.9417 H   0  0  0  0  0  0  0  0  0  0  0  0
   12.1218   25.4238   66.6907 H   0  0  0  0  0  0  0  0  0  0  0  0
    8.5900   27.3530   66.5909 H   0  0  0  0  0  0  0  0  0  0  0  0
    9.7784   27.7918   67.6214 H   0  0  0  0  0  0  0  0  0  0  0  0
   10.7066   26.7120   65.1843 H   0  0  0  0  0  0  0  0  0  0  0  0
  1  4  1  0  0  0  0
  2  5  1  0  0  0  0
  3  6  1  0  0  0  0
  4  6  1  0  0  0  0
  5  6  1  0  0  0  0
  1  7  1  0  0  0  0
  2  8  1  0  0  0  0
  3  9  1  0  0  0  0
  4 10  1  0  0  0  0
  4 11  1  0  0  0  0
  5 12  1  0  0  0  0
  5 13  1  0  0  0  0
  6 14  1  0  0  0  0
M  END
$$$$
GOL_A_520
prProtoss 05082411223D 1   1.00000     0.00000     0
Protoss beta proteinsplus
 14 13  0  0  0  0            999 V2000
   17.6260    7.8700   33.6150 O   0  0  0  0  0  0  0  0  0  0  0  0
   18.6870    3.1510   34.1940 O   0  0  0  0  0  0  0  0  0  0  0  0
   19.4050    5.6950   34.9950 O   0  0  0  0  0  0  0  0  0  0  0  0
   18.3240    6.7450   33.1100 C   0  0  0  0  0  0  0  0  0  0  0  0
   18.3250    4.2440   33.3680 C   0  0  0  0  0  0  0  0  0  0  0  0
   18.3060    5.5870   34.1130 C   0  0  0  0  0  0  0  0  0  0  0  0
   17.6534    8.6090   32.9419 H   0  0  0  0  0  0  0  0  0  0  0  0
   19.6030    3.3028   34.5652 H   0  0  0  0  0  0  0  0  0  0  0  0
   20.2566    5.6640   34.4718 H   0  0  0  0  0  0  0  0  0  0  0  0
   19.2725    7.0042   32.9278 H   0  0  0  0  0  0  0  0  0  0  0  0
   17.8907    6.4469   32.2595 H   0  0  0  0  0  0  0  0  0  0  0  0
   17.4119    4.0734   32.9976 H   0  0  0  0  0  0  0  0  0  0  0  0
   18.9829    4.3064   32.6175 H   0  0  0  0  0  0  0  0  0  0  0  0
   17.4626    5.6423   34.6475 H   0  0  0  0  0  0  0  0  0  0  0  0
  1  4  1  0  0  0  0
  2  5  1  0  0  0  0
  3  6  1  0  0  0  0
  4  6  1  0  0  0  0
  5  6  1  0  0  0  0
  1  7  1  0  0  0  0
  2  8  1  0  0  0  0
  3  9  1  0  0  0  0
  4 10  1  0  0  0  0
  4 11  1  0  0  0  0
  5 12  1  0  0  0  0
  5 13  1  0  0  0  0
  6 14  1  0  0  0  0
M  END
$$$$
GOL_A_521
prProtoss 05082411223D 1   1.00000     0.00000     0
Protoss beta proteinsplus
 14 13  0  0  0  0            999 V2000
   19.9270   35.7270   62.7120 O   0  0  0  0  0  0  0  0  0  0  0  0
   18.1640   34.7730   66.2500 O   0  0  0  0  0  0  0  0  0  0  0  0
   17.3080   37.2670   63.6950 O   0  0  0  0  0  0  0  0  0  0  0  0
   18.6200   35.3860   63.0800 C   0  0  0  0  0  0  0  0  0  0  0  0
   17.3580   35.4900   65.3160 C   0  0  0  0  0  0  0  0  0  0  0  0
   18.1420   36.2660   64.2410 C   0  0  0  0  0  0  0  0  0  0  0  0
   20.2228   35.1446   61.9549 H   0  0  0  0  0  0  0  0  0  0  0  0
   17.5746   34.3023   66.9065 H   0  0  0  0  0  0  0  0  0  0  0  0
   17.6929   38.1678   63.8961 H   0  0  0  0  0  0  0  0  0  0  0  0
   18.5974   34.4271   63.3629 H   0  0  0  0  0  0  0  0  0  0  0  0
   18.0128   35.5168   62.2963 H   0  0  0  0  0  0  0  0  0  0  0  0
   16.8000   36.1446   65.8261 H   0  0  0  0  0  0  0  0  0  0  0  0
   16.7623   34.8340   64.8525 H   0  0  0  0  0  0  0  0  0  0  0  0
   18.9352   36.7007   64.6675 H   0  0  0  0  0  0  0  0  0  0  0  0
  1  4  1  0  0  0  0
  2  5  1  0  0  0  0
  3  6  1  0  0  0  0
  4  6  1  0  0  0  0
  5  6  1  0  0  0  0
  1  7  1  0  0  0  0
  2  8  1  0  0  0  0
  3  9  1  0  0  0  0
  4 10  1  0  0  0  0
  4 11  1  0  0  0  0
  5 12  1  0  0  0  0
  5 13  1  0  0  0  0
  6 14  1  0  0  0  0
M  END
$$$$
GOL_A_522
prProtoss 05082411223D 1   1.00000     0.00000     0
Protoss beta proteinsplus
 14 13  0  0  0  0            999 V2000
   26.8720   16.9210   36.9200 O   0  0  0  0  0  0  0  0  0  0  0  0
   24.9210   17.8280   40.6240 O   0  0  0  0  0  0  0  0  0  0  0  0
   24.0740   16.1000   38.2720 O   0  0  0  0  0  0  0  0  0  0  0  0
   26.0970   17.4190   38.0030 C   0  0  0  0  0  0  0  0  0  0  0  0
   25.3110   16.5220   40.2690 C   0  0  0  0  0  0  0  0  0  0  0  0
   25.3870   16.2880   38.7590 C   0  0  0  0  0  0  0  0  0  0  0  0
   27.1964   16.0005   37.1378 H   0  0  0  0  0  0  0  0  0  0  0  0
   24.0782   17.7899   41.1609 H   0  0  0  0  0  0  0  0  0  0  0  0
   23.4192   16.2474   39.0133 H   0  0  0  0  0  0  0  0  0  0  0  0
   25.4098   18.0516   37.6459 H   0  0  0  0  0  0  0  0  0  0  0  0
   26.6995   17.9042   38.6367 H   0  0  0  0  0  0  0  0  0  0  0  0
   24.6486   15.8796   40.6544 H   0  0  0  0  0  0  0  0  0  0  0  0
   26.2138   16.3452   40.6611 H   0  0  0  0  0  0  0  0  0  0  0  0
   25.8985   15.4431   38.6026 H   0  0  0  0  0  0  0  0  0  0  0  0
  1  4  1  0  0  0  0
  2  5  1  0  0  0  0
  3  6  1  0  0  0  0
  4  6  1  0  0  0  0
  5  6  1  0  0  0  0
  1  7  1  0  0  0  0
  2  8  1  0  0  0  0
  3  9  1  0  0  0  0
  4 10  1  0  0  0  0
  4 11  1  0  0  0  0
  5 12  1  0  0  0  0
  5 13  1  0  0  0  0
  6 14  1  0  0  0  0
M  END
$$$$
GOL_A_523
prProtoss 05082411223D 1   1.00000     0.00000     0
Protoss beta proteinsplus
 14 13  0  0  0  0            999 V2000
   46.3740   16.1530   33.9800 O   0  0  0  0  0  0  0  0  0  0  0  0
   45.4600   14.4110   35.7810 O   0  0  0  0  0  0  0  0  0  0  0  0
   42.7490   16.0940   33.9640 O   0  0  0  0  0  0  0  0  0  0  0  0
   45.0680   16.6310   33.6900 C   0  0  0  0  0  0  0  0  0  0  0  0
   44.3270   14.5550   34.9450 C   0  0  0  0  0  0  0  0  0  0  0  0
   44.0070   16.0190   34.6100 C   0  0  0  0  0  0  0  0  0  0  0  0
   46.3303   15.5035   34.7391 H   0  0  0  0  0  0  0  0  0  0  0  0
   45.3009   14.8911   36.6437 H   0  0  0  0  0  0  0  0  0  0  0  0
   42.8592   16.5261   33.0689 H   0  0  0  0  0  0  0  0  0  0  0  0
   44.8441   16.4004   32.7430 H   0  0  0  0  0  0  0  0  0  0  0  0
   45.0569   17.6246   33.8027 H   0  0  0  0  0  0  0  0  0  0  0  0
   43.5366   14.1546   35.4086 H   0  0  0  0  0  0  0  0  0  0  0  0
   44.4971   14.0631   34.0911 H   0  0  0  0  0  0  0  0  0  0  0  0
   43.9689   16.5463   35.4588 H   0  0  0  0  0  0  0  0  0  0  0  0
  1  4  1  0  0  0  0
  2  5  1  0  0  0  0
  3  6  1  0  0  0  0
  4  6  1  0  0  0  0
  5  6  1  0  0  0  0
  1  7  1  0  0  0  0
  2  8  1  0  0  0  0
  3  9  1  0  0  0  0
  4 10  1  0  0  0  0
  4 11  1  0  0  0  0
  5 12  1  0  0  0  0
  5 13  1  0  0  0  0
  6 14  1  0  0  0  0
M  END
$$$$
GOL_A_524
prProtoss 05082411223D 1   1.00000     0.00000     0
Protoss beta proteinsplus
 14 13  0  0  0  0            999 V2000
   20.8060  -15.2600   75.9570 O   0  0  0  0  0  0  0  0  0  0  0  0
   24.5930  -12.7800   75.7570 O   0  0  0  0  0  0  0  0  0  0  0  0
   23.8550  -15.1990   74.8320 O   0  0  0  0  0  0  0  0  0  0  0  0
   22.0300  -14.6290   76.2820 C   0  0  0  0  0  0  0  0  0  0  0  0
   23.3580  -12.8410   75.0700 C   0  0  0  0  0  0  0  0  0  0  0  0
   22.8080  -14.2720   75.0110 C   0  0  0  0  0  0  0  0  0  0  0  0
   20.3134  -15.4850   76.7977 H   0  0  0  0  0  0  0  0  0  0  0  0
   24.9184  -11.8346   75.7745 H   0  0  0  0  0  0  0  0  0  0  0  0
   24.0431  -15.3049   73.8556 H   0  0  0  0  0  0  0  0  0  0  0  0
   22.5808  -15.2487   76.8411 H   0  0  0  0  0  0  0  0  0  0  0  0
   21.8419  -13.7931   76.7977 H   0  0  0  0  0  0  0  0  0  0  0  0
   23.4899  -12.5064   74.1369 H   0  0  0  0  0  0  0  0  0  0  0  0
   22.6959  -12.2591   75.5423 H   0  0  0  0  0  0  0  0  0  0  0  0
   22.1873  -14.3407   74.2300 H   0  0  0  0  0  0  0  0  0  0  0  0
  1  4  1  0  0  0  0
  2  5  1  0  0  0  0
  3  6  1  0  0  0  0
  4  6  1  0  0  0  0
  5  6  1  0  0  0  0
  1  7  1  0  0  0  0
  2  8  1  0  0  0  0
  3  9  1  0  0  0  0
  4 10  1  0  0  0  0
  4 11  1  0  0  0  0
  5 12  1  0  0  0  0
  5 13  1  0  0  0  0
  6 14  1  0  0  0  0
M  END
$$$$
GOL_A_525
prProtoss 05082411223D 1   1.00000     0.00000     0
Protoss beta proteinsplus
 14 13  0  0  0  0            999 V2000
   36.2340    0.2400   58.8570 O   0  0  0  0  0  0  0  0  0  0  0  0
   40.0440    2.6840   58.9150 O   0  0  0  0  0  0  0  0  0  0  0  0
   38.0240    2.6750   60.6260 O   0  0  0  0  0  0  0  0  0  0  0  0
   36.9370    1.4510   58.8480 C   0  0  0  0  0  0  0  0  0  0  0  0
   39.4330    1.4100   59.0520 C   0  0  0  0  0  0  0  0  0  0  0  0
   38.1080    1.4910   59.8230 C   0  0  0  0  0  0  0  0  0  0  0  0
   35.4840    0.2851   58.1971 H   0  0  0  0  0  0  0  0  0  0  0  0
   39.4735    3.3765   59.3566 H   0  0  0  0  0  0  0  0  0  0  0  0
   37.4904    2.4821   61.4494 H   0  0  0  0  0  0  0  0  0  0  0  0
   36.3022    2.1856   59.0876 H   0  0  0  0  0  0  0  0  0  0  0  0
   37.2902    1.6035   57.9250 H   0  0  0  0  0  0  0  0  0  0  0  0
   40.0571    0.8033   59.5444 H   0  0  0  0  0  0  0  0  0  0  0  0
   39.2550    1.0371   58.1414 H   0  0  0  0  0  0  0  0  0  0  0  0
   38.0443    0.6956   60.4257 H   0  0  0  0  0  0  0  0  0  0  0  0
  1  4  1  0  0  0  0
  2  5  1  0  0  0  0
  3  6  1  0  0  0  0
  4  6  1  0  0  0  0
  5  6  1  0  0  0  0
  1  7  1  0  0  0  0
  2  8  1  0  0  0  0
  3  9  1  0  0  0  0
  4 10  1  0  0  0  0
  4 11  1  0  0  0  0
  5 12  1  0  0  0  0
  5 13  1  0  0  0  0
  6 14  1  0  0  0  0
M  END
$$$$
