AKG_A_400
prProtoss 05082411433D 1   1.00000     0.00000     0
Protoss beta proteinsplus
 14 13  0  0  0  0            999 V2000
   21.4220   32.9420   57.7010 O   0  0  0  0  0  0  0  0  0  0  0  0
   19.8560   33.8190   56.4320 O   0  5  0  0  0  0  0  0  0  0  0  0
   25.5080   36.0720   58.6630 O   0  0  0  0  0  0  0  0  0  0  0  0
   25.1370   38.2320   58.9550 O   0  5  0  0  0  0  0  0  0  0  0  0
   22.4770   37.6450   58.5390 O   0  0  0  0  0  0  0  0  0  0  0  0
   21.2790   35.3120   57.7810 C   0  0  0  0  0  0  0  0  0  0  0  0
   22.8070   35.3820   57.8780 C   0  0  0  0  0  0  0  0  0  0  0  0
   20.8310   33.9350   57.3380 C   0  0  0  0  0  0  0  0  0  0  0  0
   24.7220   36.9940   58.6360 C   0  0  0  0  0  0  0  0  0  0  0  0
   23.2710   36.7470   58.3620 C   0  0  0  0  0  0  0  0  0  0  0  0
   20.9612   35.9894   57.1176 H   0  0  0  0  0  0  0  0  0  0  0  0
   20.8840   35.5127   58.6775 H   0  0  0  0  0  0  0  0  0  0  0  0
   23.1986   35.2068   56.9747 H   0  0  0  0  0  0  0  0  0  0  0  0
   23.1245   34.6841   58.5200 H   0  0  0  0  0  0  0  0  0  0  0  0
  1  8  2  0  0  0  0
  2  8  1  0  0  0  0
  3  9  2  0  0  0  0
  4  9  1  0  0  0  0
  5 10  2  0  0  0  0
  6  7  1  0  0  0  0
  6  8  1  0  0  0  0
  7 10  1  0  0  0  0
  9 10  1  0  0  0  0
  7 14  1  0  0  0  0
  7 13  1  0  0  0  0
  6 11  1  0  0  0  0
  6 12  1  0  0  0  0
M  CHG  2   2  -1   4  -1
M  END
$$$$
DT_B_501_MA7_B_502_DT_B_503
prProtoss 05082411433D 1   1.00000     0.00000     0
Protoss beta proteinsplus
102108  0  0  0  0            999 V2000
   29.2830   43.2870   70.5500 O   0  0  0  0  0  0  0  0  0  0  0  0
   28.7520   43.9020   71.8440 P   0  0  0  0  0  0  0  0  0  0  0  0
   27.6730   44.9550   71.6030 O   0  5  0  0  0  0  0  0  0  0  0  0
   29.8580   44.3880   72.7750 O   0  5  0  0  0  0  0  0  0  0  0  0
   28.0560   42.6470   72.6230 O   0  0  0  0  0  0  0  0  0  0  0  0
   28.7950   41.4200   72.8510 C   0  0  0  0  0  0  0  0  0  0  0  0
   28.1760   40.2730   72.0820 C   0  0  1  0  0  0  0  0  0  0  0  0
   27.9020   39.1590   72.9680 O   0  0  0  0  0  0  0  0  0  0  0  0
   26.8520   40.6080   71.4050 C   0  0  1  0  0  0  0  0  0  0  0  0
   26.8080   40.0260   70.1100 O   0  0  0  0  0  0  0  0  0  0  0  0
   25.8050   39.9900   72.3120 C   0  0  0  0  0  0  0  0  0  0  0  0
   26.5300   38.7870   72.8910 C   0  0  2  0  0  0  0  0  0  0  0  0
   26.0910   38.4200   74.2510 N   0  0  0  0  0  0  0  0  0  0  0  0
   26.7500   37.3930   74.8900 C   0  0  0  0  0  0  0  0  0  0  0  0
   27.6590   36.7650   74.3780 O   0  0  0  0  0  0  0  0  0  0  0  0
   26.3010   37.1270   76.1600 N   0  0  0  0  0  0  0  0  0  0  0  0
   25.2830   37.7730   76.8390 C   0  0  0  0  0  0  0  0  0  0  0  0
   25.0010   37.4350   77.9850 O   0  0  0  0  0  0  0  0  0  0  0  0
   24.6290   38.8310   76.1060 C   0  0  0  0  0  0  0  0  0  0  0  0
   23.5160   39.5860   76.7610 C   0  0  0  0  0  0  0  0  0  0  0  0
   25.0560   39.0940   74.8630 C   0  0  0  0  0  0  0  0  0  0  0  0
   28.7821   41.2055   73.8276 H   0  0  0  0  0  0  0  0  0  0  0  0
   29.7403   41.5451   72.5497 H   0  0  0  0  0  0  0  0  0  0  0  0
   28.8242   39.9718   71.3826 H   0  0  0  0  0  0  0  0  0  0  0  0
   26.7272   41.5986   71.3490 H   0  0  0  0  0  0  0  0  0  0  0  0
   24.9985   39.7087   71.7919 H   0  0  0  0  0  0  0  0  0  0  0  0
   25.5314   40.6270   73.0327 H   0  0  0  0  0  0  0  0  0  0  0  0
   26.4261   38.0029   72.2791 H   0  0  0  0  0  0  0  0  0  0  0  0
   26.7602   36.3847   76.6480 H   0  0  0  0  0  0  0  0  0  0  0  0
   23.1683   40.2805   76.1310 H   0  0  0  0  0  0  0  0  0  0  0  0
   22.7791   38.9534   76.9994 H   0  0  0  0  0  0  0  0  0  0  0  0
   23.8565   40.0288   77.5904 H   0  0  0  0  0  0  0  0  0  0  0  0
   24.5978   39.8203   74.3506 H   0  0  0  0  0  0  0  0  0  0  0  0
   26.3500   40.9310   68.8820 P   0  0  0  0  0  0  0  0  0  0  0  0
   27.5410   41.6780   68.4090 O   0  0  0  0  0  0  0  0  0  0  0  0
   25.1760   41.6730   69.3900 O   0  5  0  0  0  0  0  0  0  0  0  0
   26.2510   35.5940   67.4350 O   0  0  0  0  0  0  0  0  0  0  0  0
   25.8910   39.8900   67.7700 O   0  0  0  0  0  0  0  0  0  0  0  0
   25.1600   37.9940   65.8470 O   0  0  0  0  0  0  0  0  0  0  0  0
   27.9180   41.3960   60.8060 N   0  0  0  0  0  0  0  0  0  0  0  0
   27.0310   37.6270   62.3460 N   0  0  0  0  0  0  0  0  0  0  0  0
   27.3420   40.8900   63.7910 N   0  0  0  0  0  0  0  0  0  0  0  0
   27.5820   39.1280   60.5440 N   0  3  0  0  0  0  0  0  0  0  0  0
   26.8530   38.8060   64.4790 N   0  0  0  0  0  0  0  0  0  0  0  0
   27.8530   39.2660   59.0880 C   0  0  0  0  0  0  0  0  0  0  0  0
   24.8180   38.9830   68.0080 C   0  0  0  0  0  0  0  0  0  0  0  0
   27.2980   37.9370   61.0800 C   0  0  0  0  0  0  0  0  0  0  0  0
   27.0380   40.1250   64.8100 C   0  0  0  0  0  0  0  0  0  0  0  0
   27.3450   37.5840   66.6150 C   0  0  0  0  0  0  0  0  0  0  0  0
   26.4700   37.7150   65.3740 C   0  0  1  0  0  0  0  0  0  0  0  0
   26.3720   37.0100   67.6300 C   0  0  1  0  0  0  0  0  0  0  0  0
   27.6270   40.2100   61.3470 C   0  0  0  0  0  0  0  0  0  0  0  0
   25.0600   37.6950   67.2580 C   0  0  2  0  0  0  0  0  0  0  0  0
   27.0820   38.7260   63.1240 C   0  0  0  0  0  0  0  0  0  0  0  0
   27.3690   40.0160   62.7140 C   0  0  0  0  0  0  0  0  0  0  0  0
   27.9570   42.2124   61.3822 H   0  0  0  0  0  0  0  0  0  0  0  0
   28.0969   41.4676   59.8247 H   0  0  0  0  0  0  0  0  0  0  0  0
   28.0444   40.2239   58.8739 H   0  0  0  0  0  0  0  0  0  0  0  0
   28.6432   38.7050   58.8414 H   0  0  0  0  0  0  0  0  0  0  0  0
   27.0536   38.9619   58.5699 H   0  0  0  0  0  0  0  0  0  0  0  0
   23.9613   39.3931   67.6953 H   0  0  0  0  0  0  0  0  0  0  0  0
   24.7574   38.7903   68.9874 H   0  0  0  0  0  0  0  0  0  0  0  0
   27.2842   37.1701   60.4384 H   0  0  0  0  0  0  0  0  0  0  0  0
   26.9488   40.4707   65.7441 H   0  0  0  0  0  0  0  0  0  0  0  0
   27.6936   38.4739   66.9091 H   0  0  0  0  0  0  0  0  0  0  0  0
   28.1116   36.9621   66.4548 H   0  0  0  0  0  0  0  0  0  0  0  0
   26.4690   36.8511   64.8703 H   0  0  0  0  0  0  0  0  0  0  0  0
   26.6472   37.2289   68.5661 H   0  0  0  0  0  0  0  0  0  0  0  0
   24.2976   37.0672   67.4147 H   0  0  0  0  0  0  0  0  0  0  0  0
   25.4380   34.6950   68.4960 P   0  0  0  0  0  0  0  0  0  0  0  0
   25.8800   33.2970   68.2720 O   0  0  0  0  0  0  0  0  0  0  0  0
   24.0030   35.0350   68.3910 O   0  5  0  0  0  0  0  0  0  0  0  0
   25.9690   35.1610   69.9250 O   0  0  0  0  0  0  0  0  0  0  0  0
   27.3410   35.0160   70.2750 C   0  0  0  0  0  0  0  0  0  0  0  0
   27.4930   34.0920   71.4630 C   0  0  1  0  0  0  0  0  0  0  0  0
   26.8910   34.6850   72.6380 O   0  0  0  0  0  0  0  0  0  0  0  0
   26.8300   32.7250   71.3180 C   0  0  1  0  0  0  0  0  0  0  0  0
   27.5170   31.8200   72.1830 O   0  0  0  0  0  0  0  0  0  0  0  0
   25.4830   32.9360   71.9830 C   0  0  0  0  0  0  0  0  0  0  0  0
   25.8780   33.8300   73.1410 C   0  0  2  0  0  0  0  0  0  0  0  0
   24.8020   34.6720   73.7000 N   0  0  0  0  0  0  0  0  0  0  0  0
   24.4220   34.4460   75.0090 C   0  0  0  0  0  0  0  0  0  0  0  0
   24.9200   33.5760   75.7060 O   0  0  0  0  0  0  0  0  0  0  0  0
   23.4350   35.2820   75.4710 N   0  0  0  0  0  0  0  0  0  0  0  0
   22.8060   36.2930   74.7740 C   0  0  0  0  0  0  0  0  0  0  0  0
   21.9420   36.9730   75.3280 O   0  0  0  0  0  0  0  0  0  0  0  0
   23.2420   36.4680   73.4040 C   0  0  0  0  0  0  0  0  0  0  0  0
   22.6050   37.5400   72.5740 C   0  0  0  0  0  0  0  0  0  0  0  0
   24.2040   35.6580   72.9410 C   0  0  0  0  0  0  0  0  0  0  0  0
   27.7177   35.9130   70.5061 H   0  0  0  0  0  0  0  0  0  0  0  0
   27.8402   34.6353   69.4966 H   0  0  0  0  0  0  0  0  0  0  0  0
   28.4681   33.9563   71.6385 H   0  0  0  0  0  0  0  0  0  0  0  0
   26.7662   32.4072   70.3720 H   0  0  0  0  0  0  0  0  0  0  0  0
   28.2733   31.3938   71.6867 H   0  0  0  0  0  0  0  0  0  0  0  0
   25.0900   32.0732   72.3010 H   0  0  0  0  0  0  0  0  0  0  0  0
   24.8368   33.3908   71.3702 H   0  0  0  0  0  0  0  0  0  0  0  0
   26.2620   33.2654   73.8716 H   0  0  0  0  0  0  0  0  0  0  0  0
   23.1399   35.1426   76.4163 H   0  0  0  0  0  0  0  0  0  0  0  0
   23.0082   37.5369   71.6589 H   0  0  0  0  0  0  0  0  0  0  0  0
   21.6221   37.3689   72.5058 H   0  0  0  0  0  0  0  0  0  0  0  0
   22.7594   38.4299   73.0032 H   0  0  0  0  0  0  0  0  0  0  0  0
   24.5050   35.7741   71.9945 H   0  0  0  0  0  0  0  0  0  0  0  0
  2  3  1  0  0  0  0
  2  4  1  0  0  0  0
  2  5  1  0  0  0  0
  2  1  2  0  0  0  0
  5  6  1  0  0  0  0
  6  7  1  0  0  0  0
  7  8  1  0  0  0  0
  7  9  1  0  0  0  0
  8 12  1  0  0  0  0
  9 10  1  0  0  0  0
  9 11  1  0  0  0  0
 11 12  1  0  0  0  0
 12 13  1  0  0  0  0
 13 14  1  0  0  0  0
 13 21  1  0  0  0  0
 14 15  2  0  0  0  0
 14 16  1  0  0  0  0
 16 17  1  0  0  0  0
 17 18  2  0  0  0  0
 17 19  1  0  0  0  0
 19 20  1  0  0  0  0
 19 21  2  0  0  0  0
  6 22  1  0  0  0  0
  6 23  1  0  0  0  0
  7 24  1  0  0  0  0
  9 25  1  0  0  0  0
 53 69  1  0  0  0  0
 11 26  1  0  0  0  0
 11 27  1  0  0  0  0
 12 28  1  0  0  0  0
 16 29  1  0  0  0  0
 20 30  1  0  0  0  0
 20 31  1  0  0  0  0
 20 32  1  0  0  0  0
 21 33  1  0  0  0  0
 10 34  1  0  0  0  0
 34 35  2  0  0  0  0
 34 36  1  0  0  0  0
 34 38  1  0  0  0  0
 37 51  1  0  0  0  0
 38 46  1  0  0  0  0
 39 50  1  0  0  0  0
 39 53  1  0  0  0  0
 40 52  1  0  0  0  0
 41 47  2  0  0  0  0
 41 54  1  0  0  0  0
 42 48  2  0  0  0  0
 42 55  1  0  0  0  0
 43 45  1  0  0  0  0
 43 47  1  0  0  0  0
 43 52  2  0  0  0  0
 44 48  1  0  0  0  0
 44 50  1  0  0  0  0
 44 54  1  0  0  0  0
 46 53  1  0  0  0  0
 49 50  1  0  0  0  0
 49 51  1  0  0  0  0
 51 53  1  0  0  0  0
 52 55  1  0  0  0  0
 54 55  2  0  0  0  0
 51 68  1  0  0  0  0
 50 67  1  0  0  0  0
 89102  1  0  0  0  0
 40 56  1  0  0  0  0
 40 57  1  0  0  0  0
 45 58  1  0  0  0  0
 45 59  1  0  0  0  0
 45 60  1  0  0  0  0
 46 61  1  0  0  0  0
 46 62  1  0  0  0  0
 47 63  1  0  0  0  0
 48 64  1  0  0  0  0
 49 65  1  0  0  0  0
 49 66  1  0  0  0  0
 88100  1  0  0  0  0
 37 70  1  0  0  0  0
 70 71  2  0  0  0  0
 70 72  1  0  0  0  0
 70 73  1  0  0  0  0
 73 74  1  0  0  0  0
 74 75  1  0  0  0  0
 75 76  1  0  0  0  0
 75 77  1  0  0  0  0
 76 80  1  0  0  0  0
 77 78  1  0  0  0  0
 77 79  1  0  0  0  0
 79 80  1  0  0  0  0
 80 81  1  0  0  0  0
 81 82  1  0  0  0  0
 81 89  1  0  0  0  0
 82 83  2  0  0  0  0
 82 84  1  0  0  0  0
 84 85  1  0  0  0  0
 85 86  2  0  0  0  0
 85 87  1  0  0  0  0
 87 88  1  0  0  0  0
 87 89  2  0  0  0  0
 88101  1  0  0  0  0
 74 90  1  0  0  0  0
 74 91  1  0  0  0  0
 75 92  1  0  0  0  0
 77 93  1  0  0  0  0
 78 94  1  0  0  0  0
 79 95  1  0  0  0  0
 79 96  1  0  0  0  0
 80 97  1  0  0  0  0
 84 98  1  0  0  0  0
 88 99  1  0  0  0  0
M  CHG  5   3  -1   4  -1  36  -1  43   1  72  -1
M  END
$$$$
