953

  C    36.802   45.309   19.069
  C    35.354   45.291   18.543
  C    34.420   45.677   19.707
  C    34.674   47.039   20.444
  C    33.713   47.126   21.752
  C    37.083   46.745   19.708
  O    38.360   46.927   20.212
  O    37.637   44.869   18.006
  O    34.926   44.059   17.958
  O    33.130   45.858   19.149
  O    36.123   47.088   20.783
  O    34.050   46.145   22.745
  H    33.826   46.499   23.653
  H    39.032   46.702   19.506
  H    37.705   43.872   18.027
  H    35.673   43.396   17.994
  H    33.803   48.036   22.156
  H    32.766   46.980   21.465
  H    36.958   47.418   18.979
  H    36.866   44.633   19.803
  H    35.277   46.002   17.844
  H    34.394   44.934   20.376
  H    34.456   47.793   19.825
  C    32.324   44.708   18.964
  C    31.418   44.579   20.270
  C    30.288   43.553   19.987
  C    29.514   43.925   18.764
  C    30.461   43.824   17.577
  C    29.908   44.356   16.246
  O    32.197   44.170   21.417
  O    29.454   43.677   21.104
  O    29.034   45.298   18.949
  O    31.627   44.629   17.724
  O    31.019   44.454   15.316
  H    31.121   45.403   15.018
  H    32.546   44.980   21.889
  H    29.218   43.727   15.888
  H    29.498   45.258   16.383
  H    32.948   43.927   18.981
  H    31.004   45.468   20.463
  H    30.654   42.626   19.913
  H    28.741   43.303   18.642
  H    30.736   42.870   17.459
  C    27.641   45.420   18.894
  C    27.319   46.701   19.610
  C    25.830   46.855   19.507
  C    25.327   46.867   18.036
  C    25.723   45.533   17.370
  C    25.305   45.341   15.927
  C    28.696   47.415   21.487
  C    29.185   47.166   22.896
  N    27.827   46.558   20.959
  O    25.479   48.090   20.085
  O    25.842   47.959   17.296
  O    27.167   45.392   17.509
  O    25.324   43.950   15.760
  O    29.105   48.423   20.890
  H    24.682   43.529   16.400
  H    26.435   48.509   17.883
  H    27.513   45.787   21.513
  H    28.775   46.324   23.247
  H    30.181   47.075   22.892
  H    28.923   47.934   23.480
  H    24.388   45.707   15.769
  H    25.952   45.784   15.306
  H    27.229   44.658   19.393
  H    24.329   46.933   18.044
  H    25.382   46.113   20.007
  H    25.301   44.799   17.902
  H    27.772   47.468   19.155
  C    24.414   48.036   20.995
  C    24.283   49.427   21.543
  C    23.245   49.342   22.638
  C    21.913   48.804   22.047
  C    22.118   47.432   21.412
  C    20.910   46.861   20.759
  O    25.531   49.898   22.015
  O    23.091   50.609   23.174
  O    21.429   49.701   21.081
  O    23.147   47.532   20.435
  O    21.269   45.639   20.177
  H    21.988   45.791   19.499
  H    26.014   50.363   21.273
  H    23.732   50.731   23.932
  H    20.526   50.031   21.355
  H    20.193   46.715   21.441
  H    20.577   47.488   20.054
  H    24.681   47.432   21.746
  H    23.952   50.036   20.822
  H    23.566   48.718   23.351
  H    21.240   48.724   22.782
  H    22.420   46.798   22.124
  C    27.913   43.389   22.760
  C    28.678   42.619   21.661
  C    29.598   41.487   22.228
  C    28.809   40.423   22.905
  C    27.859   39.787   21.861
  C    26.921   40.910   21.227
  C    25.955   40.494   20.132
  C    25.372   41.690   19.313
  C    24.292   41.198   18.325
  C    26.570   37.743   22.160
  C    25.819   36.814   23.077
  N    27.109   38.840   22.677
  O    26.888   44.005   22.409
  O    28.384   43.469   23.911
  O    29.623   39.451   23.542
  O    27.766   42.005   20.692
  O    26.695   39.694   19.235
  O    24.833   42.718   20.092
  O    23.547   42.284   17.766
  O    26.646   37.467   20.971
  H    23.093   42.790   18.500
  H    25.524   43.045   20.737
  H    29.141   39.081   24.336
  H    26.669   38.742   19.539
  H    26.998   39.022   23.654
  H    25.846   37.173   24.010
  H    24.869   36.743   22.774
  H    26.244   35.909   23.056
  H    24.737   40.695   17.584
  H    23.663   40.590   18.810
  H    30.112   41.079   21.473
  H    30.235   41.887   22.887
  H    26.119   42.079   18.774
  H    28.246   40.859   23.607
  H    25.208   39.958   20.526
  H    26.376   41.295   21.972
  H    28.377   39.312   21.150
  N    26.315   38.660   29.031
  C    26.883   38.358   27.714
  C    27.040   39.571   26.797
  O    27.409   39.432   25.627
  C    26.036   37.292   27.005
  C    25.979   35.964   27.741
  C    25.290   34.872   26.945
  O    24.041   34.870   26.873
  O    26.000   34.009   26.392
  H    25.324   38.622   29.156
  H    27.793   37.971   27.860
  H    26.425   37.133   26.097
  H    25.104   37.641   26.912
  H    25.481   36.096   28.598
  H    26.914   35.671   27.941
  N    26.731   40.746   27.323
  C    26.797   41.980   26.566
  C    27.558   43.053   27.328
  O    27.587   43.042   28.556
  C    25.378   42.468   26.295
  C    24.572   41.458   25.539
  C    24.035   40.338   26.188
  C    24.416   41.569   24.171
  C    23.376   39.357   25.495
  C    23.755   40.591   23.451
  C    23.239   39.490   24.117
  O    22.576   38.544   23.399
  H    26.441   40.783   28.279
  H    27.257   41.807   25.695
  H    25.423   43.311   25.759
  H    24.928   42.652   27.169
  H    24.135   40.253   27.179
  H    24.786   42.367   23.695
  H    23.001   38.561   25.970
  H    23.650   40.677   22.460
  H    22.480   38.644   22.409
  N    28.195   43.965   26.601
  C    28.924   45.060   27.239
  C    27.914   46.176   27.420
  O    26.933   46.240   26.677
  C    30.045   45.599   26.340
  C    31.066   44.582   25.963
  N    31.240   44.151   24.665
  C    31.942   43.872   26.722
  C    32.178   43.216   24.639
  N    32.615   43.033   25.874
  H    28.175   43.901   25.603
  H    29.291   44.770   28.123
  H    30.506   46.342   26.825
  H    29.631   45.954   25.502
  H    32.071   43.948   27.711
  H    32.500   42.732   23.826
  H    33.325   42.384   26.146
  N    28.195   47.074   28.359
  C    27.351   48.237   28.622
  C    25.964   47.862   29.141
  O    24.976   48.545   28.848
  C    27.236   49.106   27.353
  C    28.602   49.466   26.758
  O    28.867   49.202   25.590
  N    29.473   50.066   27.572
  H    29.020   46.948   28.909
  H    27.801   48.786   29.326
  H    26.756   49.951   27.586
  H    26.711   48.603   26.667
  H    29.219   50.264   28.518
  H    30.380   50.318   27.235
  N    14.136   50.971   22.686
  C    14.681   51.763   21.607
  C    13.944   51.697   20.293
  O    13.305   50.691   19.975
  C    16.132   51.358   21.340
  C    17.158   51.983   22.260
  C    18.582   51.706   21.797
  O    19.137   50.641   22.138
  O    19.138   52.550   21.070
  H    14.693   50.245   23.090
  H    14.684   52.718   21.904
  H    16.358   51.620   20.402
  H    16.198   50.365   21.434
  H    17.039   51.608   23.179
  H    17.012   52.972   22.282
  N    19.993   50.625   12.985
  C    21.122   49.825   12.479
  C    21.947   49.092   13.557
  O    22.763   48.237   13.250
  C    22.022   50.682   11.580
  O    22.091   52.025   12.029
  H    20.047   51.622   12.924
  H    20.728   49.117   11.893
  H    21.655   50.670   10.650
  H    22.943   50.293   11.580
  H    22.685   52.550   11.419
  N    21.742   49.441   14.819
  C    22.449   48.760   15.883
  C    21.732   47.439   16.197
  O    22.220   46.642   16.990
  C    22.537   49.641   17.141
  C    21.227   49.846   17.907
  C    20.410   51.000   17.381
  O    20.445   51.310   16.196
  N    19.667   51.644   18.257
  H    21.099   50.175   15.036
  H    23.376   48.554   15.571
  H    22.873   50.541   16.862
  H    23.194   49.219   17.765
  H    21.444   50.021   18.867
  H    20.682   49.011   17.835
  H    19.666   51.360   19.216
  H    19.104   52.417   17.963
  N    20.574   47.199   15.593
  C    19.778   45.987   15.820
  C    19.940   45.073   14.643
  O    19.864   45.545   13.511
  C    18.321   46.387   15.944
  C    18.016   47.151   17.164
  N    17.485   48.395   17.032
  C    18.189   46.980   18.499
  C    17.322   48.986   18.202
  N    17.750   48.132   19.129
  H    20.226   47.880   14.949
  H    20.081   45.528   16.655
  H    17.765   45.556   15.945
  H    18.080   46.948   15.152
  H    18.565   46.169   18.947
  H    16.949   49.900   18.361
  H    17.754   48.295   20.116
  N    20.123   43.781   14.882
  C    20.189   42.834   13.781
  C    18.751   42.409   13.469
  O    17.834   42.677   14.258
  C    21.091   41.621   14.112
  C    20.630   40.921   15.389
  C    22.532   42.090   14.252
  C    21.502   39.732   15.772
  H    20.216   43.457   15.824
  H    20.564   43.301   12.980
  H    21.040   40.970   13.355
  H    19.694   40.597   15.253
  H    20.649   41.583   16.138
  H    23.118   41.308   14.466
  H    22.832   42.506   13.394
  H    22.593   42.764   14.988
  H    21.151   39.318   16.612
  H    21.486   39.056   15.035
  H    22.441   40.042   15.920
  N    16.308   40.799   15.978
  C    15.834   41.644   17.064
  C    14.561   42.377   16.741
  O    13.880   42.852   17.639
  C    16.897   42.654   17.462
  C    18.003   42.032   18.240
  C    19.059   43.033   18.570
  O    19.855   43.382   17.723
  N    19.048   43.540   19.789
  H    17.043   41.127   15.384
  H    15.658   41.057   17.854
  H    16.471   43.366   18.021
  H    17.278   43.064   16.633
  H    18.409   41.296   17.699
  H    17.633   41.656   19.090
  H    18.374   43.223   20.456
  H    19.714   44.241   20.045
  N    20.920   48.480   28.799
  C    22.138   48.989   28.208
  C    22.225   50.360   28.864
  O    21.256   51.111   28.851
  C    21.974   49.150   26.706
  C    22.208   47.895   25.957
  C    23.410   47.277   25.750
  C    21.219   47.085   25.314
  N    23.229   46.134   25.016
  C    21.893   45.990   24.732
  C    19.825   47.178   25.169
  C    21.222   44.989   24.011
  C    19.154   46.179   24.443
  C    19.859   45.101   23.877
  H    20.048   48.650   28.339
  H    22.927   48.418   28.436
  H    22.627   49.837   26.387
  H    21.043   49.463   26.520
  H    24.291   47.610   26.085
  H    23.953   45.506   24.733
  H    19.320   47.940   25.574
  H    21.719   44.220   23.609
  H    18.162   46.235   24.327
  H    19.358   44.402   23.367
  N    24.478   52.751   28.064
  C    25.187   53.685   27.191
  C    24.176   54.512   26.386
  O    24.525   55.187   25.417
  C    26.138   52.921   26.252
  C    25.409   52.027   25.258
  O    24.262   51.621   25.483
  N    26.076   51.713   24.146
  H    24.188   51.868   27.694
  H    25.728   54.306   27.759
  H    26.743   52.351   26.808
  H    26.683   53.586   25.741
  H    27.002   52.062   24.003
  H    25.650   51.128   23.456
  N    22.919   54.440   26.817
  C    21.794   55.132   26.200
  C    21.036   55.861   27.293
  O    21.058   55.444   28.452
  C    20.853   54.106   25.553
  C    21.404   53.472   24.314
  C    21.428   54.491   23.200
  C    22.315   54.017   22.082
  N    21.896   52.687   21.576
  H    22.733   53.872   27.619
  H    22.122   55.782   25.514
  H    19.998   54.568   25.316
  H    20.668   53.384   26.220
  H    20.826   52.700   24.048
  H    22.333   53.147   24.490
  H    21.777   55.359   23.554
  H    20.500   54.622   22.852
  H    23.255   53.955   22.418
  H    22.272   54.677   21.332
  H    22.128   52.611   20.606
  H    22.369   51.971   22.089
  H    20.908   52.583   21.691
  O    17.749   47.983   21.985
  H    18.211   48.868   22.036
  H    18.365   47.351   22.456
  O    25.853   45.344   24.344
  H    26.250   45.673   25.201
  H    26.581   44.804   23.922
  O    22.403   42.979   21.286
  H    23.296   42.883   20.847
  H    22.058   43.859   20.961
  O    27.630   48.149   14.762
  H    27.055   48.088   15.578
  H    28.476   47.681   15.017
  O    26.578   48.244   24.143
  H    26.216   48.816   23.407
  H    27.450   48.669   24.385
  O    22.299   44.382   18.043
  H    21.380   44.006   17.923
  H    22.265   45.274   17.593
  O    29.032   40.721   17.506
  H    28.274   40.388   18.067
  H    29.719   41.023   18.167
  O    26.080   42.879   12.615
  H    25.858   43.193   13.538
  H    25.664   43.559   12.012
  O    23.629   45.246   12.228
  H    23.365   46.159   12.540
  H    22.932   44.639   12.610
  O    27.137   46.818   12.687
  H    26.231   46.412   12.568
  H    27.075   47.321   13.549
  O    34.073   43.226   15.541
  H    33.147   43.598   15.473
  H    34.432   43.603   16.395
  N    20.411   40.726   20.900
  C    20.832   40.046   19.683
  C    21.459   38.702   19.933
  O    22.390   38.598   20.723
  H    20.732   41.657   21.072
  H    21.499   40.624   19.212
  H    20.031   39.918   19.099
  N    20.938   37.686   19.252
  C    21.386   36.296   19.366
  C    20.839   35.602   20.610
  O    21.063   34.408   20.807
  C    22.914   36.189   19.308
  C    23.462   36.591   17.973
  C    24.921   36.915   18.058
  C    25.419   37.353   16.698
  N    25.040   36.356   15.658
  H    20.190   37.884   18.619
  H    21.026   35.805   18.573
  H    23.177   35.242   19.492
  H    23.305   36.786   20.009
  H    22.968   37.397   17.648
  H    23.333   35.838   17.328
  H    25.426   36.104   18.353
  H    25.061   37.653   18.718
  H    26.415   37.439   16.724
  H    25.014   38.238   16.469
  H    24.146   36.594   15.278
  H    25.724   36.359   14.929
  H    24.995   35.446   16.070
  N    20.094   36.348   21.419
  C    19.483   35.797   22.617
  C    18.014   36.189   22.669
  O    17.489   36.479   23.744
  C    20.185   36.299   23.870
  C    21.537   35.685   24.113
  C    21.453   34.214   24.411
  N    22.802   33.693   24.568
  C    23.547   33.216   23.577
  N    23.067   33.154   22.340
  N    24.821   32.920   23.801
  H    19.950   37.313   21.198
  H    19.551   34.800   22.586
  H    19.603   36.096   24.657
  H    20.301   37.289   23.788
  H    21.964   36.146   24.891
  H    22.100   35.816   23.297
  H    20.996   33.743   23.656
  H    20.936   34.070   25.255
  H    23.196   33.694   25.487
  H    23.635   32.793   21.601
  H    22.137   33.468   22.148
  H    25.389   32.560   23.060
  H    25.214   33.056   24.711
  N    20.723   28.669   26.568
  C    22.086   28.531   27.177
  C    22.207   29.354   28.487
  O    22.579   28.793   29.517
  C    23.132   28.816   26.120
  O    22.542   28.513   24.840
  C    24.360   27.921   26.332
  H    20.629   28.915   25.603
  H    22.190   27.570   27.432
  H    23.400   29.779   26.154
  H    23.256   28.213   24.207
  H    25.042   28.119   25.628
  H    24.751   28.100   27.235
  H    24.087   26.961   26.271
  N    22.032   30.698   28.449
  C    22.123   31.338   29.770
  C    20.807   30.847   30.436
  O    19.808   30.607   29.735
  C    22.074   32.832   29.437
  C    21.336   32.881   28.126
  C    21.922   31.711   27.384
  H    22.943   31.075   30.279
  H    21.580   33.339   30.143
  H    22.996   33.207   29.341
  H    20.351   32.768   28.260
  H    21.511   33.740   27.644
  H    21.314   31.404   26.652
  H    22.818   31.935   27.002
  H    20.803   30.710   31.524
  N    22.739   35.902   33.922
  C    23.725   35.265   33.039
  C    23.613   35.859   31.640
  O    24.617   36.132   30.962
  C    23.462   33.765   32.913
  C    23.732   33.003   34.193
  O    24.141   33.623   35.216
  O    23.523   31.764   34.160
  H    21.995   35.349   34.297
  H    24.646   35.417   33.397
  H    24.052   33.398   32.194
  H    22.504   33.630   32.659
  H    22.790   36.882   34.162
  N    22.374   36.026   31.195
  C    22.115   36.577   29.881
  C    22.636   38.015   29.773
  O    23.290   38.377   28.801
  C    20.613   36.525   29.606
  C    20.115   36.817   28.189
  C    18.915   35.949   27.873
  C    19.778   38.293   28.042
  H    21.604   35.766   31.778
  H    22.584   36.015   29.200
  H    20.179   37.191   30.213
  H    20.302   35.605   29.844
  H    20.846   36.593   27.544
  H    18.596   36.146   26.946
  H    19.174   34.985   27.939
  H    18.182   36.143   28.526
  H    19.454   38.470   27.113
  H    19.063   38.538   28.697
  H    20.595   38.841   28.220
  N    22.385   38.814   30.802
  C    22.794   40.207   30.790
  C    24.302   40.249   30.673
  O    24.850   41.019   29.888
  C    22.354   40.895   32.081
  S    22.165   42.700   31.980
  H    21.905   38.450   31.600
  H    22.383   40.671   30.005
  H    23.036   40.695   32.784
  H    21.473   40.508   32.352
  N    24.962   39.347   31.395
  C    26.414   39.263   31.409
  C    27.089   38.984   30.064
  O    28.299   39.133   29.954
  C    26.870   38.248   32.459
  H    24.439   38.701   31.950
  H    26.747   40.155   31.714
  H    27.869   38.197   32.462
  H    26.549   38.535   33.361
  H    26.491   37.349   32.240
  N    25.888   46.766   29.886
  C    24.624   46.319   30.453
  C    24.737   46.297   31.972
  O    25.844   46.295   32.525
  C    24.224   44.915   29.937
  O    25.355   44.042   29.971
  C    23.744   44.978   28.531
  H    26.717   46.236   30.062
  H    23.910   46.970   30.195
  H    23.500   44.542   30.518
  H    25.089   43.138   29.636
  H    23.493   44.060   28.223
  H    22.945   45.578   28.478
  H    24.471   45.338   27.946
  H    23.794   46.399   32.524
  N     8.725   54.582   19.823
  C     9.271   53.966   21.023
  C     8.248   53.909   22.168
  O     7.121   54.405   22.057
  C    10.475   54.797   21.472
  C    10.110   56.235   21.849
  S    11.521   57.348   22.062
  C    12.162   56.730   23.601
  H     8.121   55.373   19.922
  H     9.574   53.038   20.807
  H    11.139   54.823   20.725
  H    10.887   54.355   22.269
  H     9.601   56.211   22.709
  H     9.527   56.607   21.127
  H    12.970   57.259   23.862
  H    11.464   56.816   24.311
  H    12.413   55.768   23.495
  H     8.930   54.245   18.897
  H     8.606   53.423   23.082
  N    13.610   52.764   28.339
  C    12.946   52.885   27.039
  C    13.164   51.623   26.239
  O    14.025   50.814   26.562
  C    13.571   54.040   26.229
  C    15.077   53.825   25.965
  C    15.661   54.702   24.860
  O    15.133   54.738   23.754
  N    16.786   55.371   25.144
  H    14.518   52.349   28.395
  H    11.967   53.046   27.167
  H    13.453   54.891   26.740
  H    13.098   54.110   25.351
  H    15.215   52.868   25.709
  H    15.573   54.019   26.812
  H    17.184   55.314   26.060
  H    17.228   55.927   24.440
  H    13.162   53.093   29.172
  N    12.304   51.409   25.255
  C    12.505   50.318   24.332
  C    12.918   51.186   23.150
  O    12.184   52.112   22.745
  C    11.234   49.536   23.992
  C    11.602   48.411   23.004
  C    10.623   48.937   25.251
  H    11.510   52.008   25.151
  H    13.246   49.714   24.626
  H    10.572   50.150   23.563
  H    10.781   47.890   22.771
  H    11.990   48.811   22.173
  H    12.274   47.803   23.426
  H     9.795   48.430   25.011
  H    11.281   48.317   25.678
  H    10.392   49.670   25.891
  N    14.064   52.780   19.532
  C    13.517   52.863   18.181
  C    14.400   51.882   17.375
  O    15.617   51.823   17.567
  C    13.710   54.305   17.600
  C    13.224   54.382   16.153
  C    12.954   55.311   18.442
  H    14.550   53.572   19.901
  H    12.556   52.588   18.160
  H    14.683   54.533   17.624
  H    13.357   55.310   15.805
  H    13.744   53.738   15.592
  H    12.252   54.148   16.115
  H    13.084   56.227   18.063
  H    11.980   55.084   18.439
  H    13.299   55.287   19.380
  N    13.788   51.006   16.574
  C    14.617   50.081   15.805
  C    15.572   50.849   14.893
  O    15.172   51.818   14.234
  C    13.577   49.294   15.020
  C    12.471   49.208   15.979
  C    12.374   50.609   16.516
  H    15.127   49.476   16.416
  H    13.302   49.781   14.191
  H    13.917   48.386   14.775
  H    11.622   48.938   15.524
  H    12.679   48.557   16.709
  H    11.855   51.200   15.899
  H    11.954   50.623   17.423
  N    16.812   50.378   14.815
  C    17.818   51.038   13.998
  C    18.901   50.076   13.521
  O    18.764   48.852   13.661
  H    17.058   49.555   15.327
  H    18.247   51.762   14.539
  H    17.370   51.439   13.199
  N    18.527   41.778   12.322
  C    17.172   41.383   11.948
  C    16.370   40.527   12.929
  O    15.154   40.680   13.023
  C    17.139   40.757   10.558
  C    16.680   41.731    9.502
  O    15.501   42.168    9.570
  O    17.493   42.061    8.609
  H    19.291   41.572   11.711
  H    16.661   42.238   11.865
  H    16.512   39.978   10.571
  H    18.059   40.441   10.326
  N    17.033   39.637   13.652
  C    16.349   38.789   14.612
  C    15.780   39.597   15.762
  O    14.854   39.156   16.432
  C    17.303   37.714   15.135
  O    18.569   38.272   15.472
  H    18.022   39.547   13.535
  H    15.591   38.334   14.144
  H    17.430   37.018   14.428
  H    16.905   37.292   15.950
  H    18.449   38.966   16.182
  N    14.248   42.482   15.458
  C    13.050   43.173   14.990
  C    11.777   42.690   15.705
  O    11.015   43.479   16.284
  C    12.916   42.956   13.472
  C    13.435   44.100   12.569
  C    14.887   44.515   12.812
  C    15.310   45.642   11.847
  N    16.720   46.104   12.077
  H    14.858   42.070   14.781
  H    13.160   44.152   15.163
  H    11.946   42.822   13.268
  H    13.424   42.127   13.236
  H    12.855   44.901   12.720
  H    13.353   43.804   11.617
  H    15.481   43.723   12.670
  H    14.981   44.838   13.754
  H    14.694   46.420   11.974
  H    15.233   45.305   10.909
  H    16.942   46.832   11.428
  H    16.809   46.451   13.011
  H    17.348   45.337   11.945
  N    11.536   41.391   15.595
  C    10.400   40.728   16.216
  C    10.396   40.895   17.745
  O     9.346   41.194   18.326
  C    10.419   39.225   15.837
  C     9.971   38.215   16.935
  C    11.069   37.810   17.980
  C    10.412   37.315   19.297
  N    11.326   36.968   20.444
  H    12.170   40.837   15.056
  H     9.561   41.134   15.853
  H    11.356   38.991   15.576
  H     9.813   39.104   15.050
  H     9.661   37.382   16.477
  H     9.208   38.624   17.435
  H    11.644   38.604   18.177
  H    11.632   37.077   17.598
  H     9.882   36.496   19.078
  H     9.795   38.036   19.613
  H    11.111   37.548   21.229
  H    11.198   36.008   20.694
  H    12.276   37.117   20.170
  N    11.564   40.698   18.371
  C    11.727   40.780   19.828
  C    11.463   42.170   20.394
  O    10.942   42.296   21.505
  C    13.105   40.264   20.241
  H    12.368   40.484   17.816
  H    11.050   40.165   20.233
  H    13.200   40.326   21.234
  H    13.203   39.311   19.956
  H    13.813   40.817   19.803
  N    11.808   43.213   19.637
  C    11.552   44.593   20.057
  C    10.035   44.830   20.162
  O     9.558   45.439   21.132
  C    12.144   45.603   19.055
  C    13.670   45.604   19.168
  C    11.531   47.011   19.278
  C    14.384   46.401   18.100
  H    12.254   43.048   18.757
  H    11.968   44.743   20.954
  H    11.902   45.302   18.133
  H    13.987   44.657   19.113
  H    13.916   45.987   20.058
  H    11.925   47.654   18.621
  H    10.540   46.967   19.149
  H    11.733   47.319   20.208
  H    15.371   46.348   18.249
  H    14.162   46.026   17.200
  H    14.091   47.356   18.145
  H     9.412   44.446   19.340
  N     7.486   45.493   23.624
  C     6.549   46.595   23.817
  C     5.195   46.034   24.206
  O     4.488   46.615   25.036
  C     6.485   47.494   22.579
  C     7.763   48.364   22.445
  C     7.762   49.255   21.212
  C     7.941   48.463   19.957
  N     8.310   49.361   18.831
  H     7.818   45.273   22.707
  H     6.881   47.149   24.580
  H     5.689   48.094   22.654
  H     6.395   46.921   21.765
  H     8.556   47.757   22.396
  H     7.837   48.945   23.256
  H     8.510   49.915   21.288
  H     6.890   49.743   21.166
  H     7.086   47.993   19.738
  H     8.667   47.788   20.093
  H     8.427   48.820   17.998
  H     7.585   50.036   18.691
  H     9.166   49.831   19.046
  H     7.797   44.955   24.414
  H     4.907   45.077   23.747
  N    19.547   46.251   31.317
  C    19.556   47.430   30.470
  C    20.927   47.797   29.928
  O    21.957   47.456   30.490
  C    19.040   48.653   31.264
  C    17.690   48.341   31.892
  C    20.039   49.025   32.365
  H    20.183   46.192   32.086
  H    18.941   47.271   29.697
  H    18.938   49.428   30.640
  H    17.367   49.138   32.402
  H    17.032   48.116   31.173
  H    17.783   47.563   32.514
  H    19.697   49.816   32.872
  H    20.151   48.252   32.989
  H    20.922   49.250   31.952
  H    18.911   45.494   31.141
  N    23.340   50.669   29.510
  C    23.447   51.974   30.152
  C    24.206   53.038   29.338
  O    24.497   54.113   29.849
  C    24.002   51.850   31.582
  C    25.310   51.082   31.650
  O    26.000   50.885   30.643
  N    25.660   50.633   32.850
  H    24.097   50.017   29.557
  H    22.511   52.313   30.247
  H    23.325   51.376   32.146
  H    24.154   52.769   31.945
  H    25.075   50.813   33.641
  H    26.508   50.115   32.962
  N    20.364   56.949   26.948
  C    19.583   57.666   27.957
  C    18.230   58.032   27.357
  O    18.177   58.630   26.288
  C    20.310   58.947   28.488
  O    21.493   58.575   29.211
  C    19.398   59.737   29.417
  H    20.390   57.278   26.004
  H    19.428   57.050   28.730
  H    20.567   59.524   27.712
  H    21.951   59.398   29.547
  H    19.880   60.550   29.745
  H    18.576   60.015   28.920
  H    19.140   59.166   30.196
  N    17.130   57.544   27.949
  C    17.064   56.690   29.137
  C    17.672   55.316   28.817
  O    17.814   54.952   27.645
  C    15.556   56.555   29.375
  C    14.972   57.764   28.746
  C    15.772   57.859   27.473
  H    17.519   57.117   29.918
  H    15.203   55.726   28.942
  H    15.353   56.533   30.354
  H    13.998   57.642   28.557
  H    15.102   58.573   29.320
  H    15.460   57.193   26.796
  H    15.727   58.778   27.082
  N    18.020   54.568   29.862
  C    18.603   53.231   29.726
  C    17.700   52.357   28.878
  O    16.487   52.362   29.079
  C    18.774   52.603   31.108
  C    19.809   53.283   31.946
  N    20.777   54.106   31.411
  C    20.048   53.233   33.275
  C    21.564   54.543   32.380
  N    21.144   54.026   33.519
  H    17.877   54.935   30.781
  H    19.498   53.305   29.285
  H    19.040   51.646   30.991
  H    17.898   52.649   31.588
  H    20.869   54.337   30.443
  H    19.526   52.717   33.953
  H    22.343   55.159   32.269
  N    18.284   51.612   27.945
  C    17.523   50.765   27.025
  C    17.329   49.309   27.477
  O    18.295   48.582   27.737
  C    18.130   50.823   25.646
  H    19.281   51.631   27.869
  H    16.610   51.167   26.954
  H    17.604   50.242   25.025
  H    18.113   51.766   25.314
  H    19.075   50.500   25.684
  N    16.069   48.870   27.519
  C    15.733   47.512   27.971
  C    16.221   46.374   27.050
  O    15.892   46.336   25.871
  C    14.211   47.362   28.206
  C    13.728   48.350   29.276
  C    13.884   45.930   28.640
  C    12.252   48.676   29.162
  H    15.332   49.483   27.235
  H    16.179   47.381   28.857
  H    13.733   47.556   27.350
  H    14.249   49.198   29.184
  H    13.897   47.951   30.177
  H    12.899   45.844   28.789
  H    14.170   45.292   27.926
  H    14.369   45.720   29.489
  H    11.997   49.321   29.882
  H    12.069   49.085   28.268
  H    11.717   47.837   29.261
  N    17.028   45.472   27.603
  C    17.512   44.317   26.866
  C    16.680   43.070   27.230
  O    16.406   42.235   26.377
  C    18.999   44.070   27.149
  H    17.310   45.593   28.555
  H    17.402   44.497   25.888
  H    19.309   43.272   26.632
  H    19.529   44.872   26.873
  H    19.129   43.905   28.127
  H    16.324   42.983   28.265
  N    13.856   38.206   26.471
  C    15.026   38.935   25.986
  C    14.901   39.334   24.509
  O    14.399   38.577   23.692
  C    16.286   38.067   26.162
  O    17.425   38.651   25.539
  H    13.495   37.461   25.910
  H    15.133   39.766   26.532
  H    16.119   37.169   25.754
  H    16.471   37.960   27.139
  H    17.780   38.028   24.842
  H    13.393   38.417   27.344
  N    15.399   40.523   24.179
  C    15.387   41.029   22.808
  C    16.850   41.246   22.358
  O    17.125   41.718   21.251
  C    14.554   42.317   22.739
  C    15.004   43.790   22.777
  C    13.871   44.619   23.372
  C    16.255   44.068   23.542
  H    15.797   41.093   24.898
  H    14.967   40.342   22.215
  H    13.916   42.237   23.505
  H    14.052   42.237   21.878
  H    15.145   44.093   21.835
  H    14.144   45.581   23.406
  H    13.054   44.524   22.803
  H    13.672   44.296   24.297
  H    16.458   45.046   23.505
  H    16.132   43.789   24.494
  H    17.013   43.555   23.139
  N    17.783   40.877   23.241
  C    19.219   40.999   22.994
  C    19.612   40.144   21.790
  O    19.195   38.989   21.676
  C    19.990   40.572   24.230
  H    17.483   40.498   24.116
  H    19.432   41.955   22.795
  H    20.971   40.657   24.057
  H    19.736   41.157   25.000
  H    19.771   39.621   24.447
  N    17.359   36.238   21.509
  C    15.945   36.582   21.454
  C    15.187   35.311   21.874
  O    14.804   34.483   21.041
  C    15.549   37.047   20.045
  C    16.413   38.206   19.507
  C    17.643   37.731   18.734
  O    17.925   36.515   18.764
  O    18.324   38.569   18.085
  H    17.848   36.035   20.661
  H    15.756   37.313   22.110
  H    14.596   37.349   20.069
  H    15.638   36.271   19.420
  H    16.719   38.761   20.281
  H    15.851   38.765   18.898
  N    14.993   35.168   23.178
  C    14.361   33.979   23.743
  C    13.555   34.278   25.015
  O    13.547   35.411   25.516
  C    15.463   33.002   24.134
  C    16.461   33.610   25.130
  S    17.702   32.475   25.777
  C    18.569   32.134   24.356
  H    15.289   35.898   23.794
  H    13.765   33.558   23.059
  H    15.958   32.730   23.309
  H    15.044   32.196   24.552
  H    15.942   33.972   25.904
  H    16.938   34.358   24.670
  H    19.312   31.498   24.563
  H    17.956   31.722   23.682
  H    18.949   32.982   23.986
  H    13.031   33.419   25.458
  N    16.067   30.089   20.731
  C    16.270   31.175   19.766
  C    16.010   30.495   18.399
  O    16.424   29.349   18.190
  C    17.763   31.711   19.826
  C    18.010   32.752   18.756
  C    18.055   32.357   21.161
  H    16.847   29.765   21.266
  H    15.619   31.917   19.924
  H    18.391   30.945   19.689
  H    18.955   33.073   18.815
  H    17.851   32.348   17.855
  H    17.387   33.523   18.891
  H    18.999   32.685   21.173
  H    17.433   33.127   21.302
  H    17.926   31.686   21.891
  H    15.165   29.657   20.873
  H    15.375   31.019   17.657
