CL_A_304
prProtoss 05082411173D 1   1.00000     0.00000     0
Protoss beta proteinsplus
  1  0  0  0  0  0            999 V2000
  105.9520    2.4420   17.9560 Cl  0  5  0  0  0  0  0  0  0  0  0  0
M  CHG  1   1  -1
M  END
$$$$
CL_A_305
prProtoss 05082411173D 1   1.00000     0.00000     0
Protoss beta proteinsplus
  1  0  0  0  0  0            999 V2000
   95.8650   15.6460    7.6460 Cl  0  5  0  0  0  0  0  0  0  0  0  0
M  CHG  1   1  -1
M  END
$$$$
CL_B_302
prProtoss 05082411173D 1   1.00000     0.00000     0
Protoss beta proteinsplus
  1  0  0  0  0  0            999 V2000
  106.1410   42.1990   -9.3260 Cl  0  5  0  0  0  0  0  0  0  0  0  0
M  CHG  1   1  -1
M  END
$$$$
CL_B_303
prProtoss 05082411173D 1   1.00000     0.00000     0
Protoss beta proteinsplus
  1  0  0  0  0  0            999 V2000
  114.5850   51.0270   16.6800 Cl  0  5  0  0  0  0  0  0  0  0  0  0
M  CHG  1   1  -1
M  END
$$$$
TAN_A_302
prProtoss 05082411173D 1   1.00000     0.00000     0
Protoss beta proteinsplus
 17 16  0  0  0  0            999 V2000
  105.7550   24.9630   15.8650 N   0  0  0  0  0  0  0  0  0  0  0  0
  106.5210   24.9080   19.5240 C   0  0  0  0  0  0  0  0  0  0  0  0
  107.5740   23.6980   17.7250 C   0  0  0  0  0  0  0  0  0  0  0  0
  105.1650   23.2140   18.2260 C   0  0  0  0  0  0  0  0  0  0  0  0
  105.8300   25.2830   17.1380 C   0  0  0  0  0  0  0  0  0  0  0  0
  106.2740   24.2590   18.1070 C   0  0  0  0  0  0  0  0  0  0  0  0
  105.6709   25.3167   19.8562 H   0  0  0  0  0  0  0  0  0  0  0  0
  106.8248   24.2032   20.1650 H   0  0  0  0  0  0  0  0  0  0  0  0
  107.2238   25.6154   19.4487 H   0  0  0  0  0  0  0  0  0  0  0  0
  107.4989   23.2639   16.8273 H   0  0  0  0  0  0  0  0  0  0  0  0
  108.2543   24.4299   17.6854 H   0  0  0  0  0  0  0  0  0  0  0  0
  107.8553   23.0177   18.4018 H   0  0  0  0  0  0  0  0  0  0  0  0
  105.0021   22.7975   17.3316 H   0  0  0  0  0  0  0  0  0  0  0  0
  105.4414   22.5074   18.8774 H   0  0  0  0  0  0  0  0  0  0  0  0
  104.3260   23.6534   18.5469 H   0  0  0  0  0  0  0  0  0  0  0  0
  105.8650   24.0103   15.5816 H   0  0  0  0  0  0  0  0  0  0  0  0
  105.6540   26.7590   17.5180 R#  0  0  0  0  0  0  0  0  0  0  0  0
  1 16  1  0  0  0  0
  3 12  1  0  0  0  0
  4 15  1  0  0  0  0
  5 17  1  0  0  0  0
  1  5  2  0  0  0  0
  2  6  1  0  0  0  0
  3  6  1  0  0  0  0
  4  6  1  0  0  0  0
  5  6  1  0  0  0  0
  4 14  1  0  0  0  0
  4 13  1  0  0  0  0
  2  7  1  0  0  0  0
  2  8  1  0  0  0  0
  2  9  1  0  0  0  0
  3 10  1  0  0  0  0
  3 11  1  0  0  0  0
M  RGP  1  17   1
M  END
$$$$
