102

  O    29.283   43.287   70.550
  P    28.752   43.902   71.844
  O    27.673   44.955   71.603
  O    29.858   44.388   72.775
  O    28.056   42.647   72.623
  C    28.795   41.420   72.851
  C    28.176   40.273   72.082
  O    27.902   39.159   72.968
  C    26.852   40.608   71.405
  O    26.808   40.026   70.110
  C    25.805   39.990   72.312
  C    26.530   38.787   72.891
  N    26.091   38.420   74.251
  C    26.750   37.393   74.890
  O    27.659   36.765   74.378
  N    26.301   37.127   76.160
  C    25.283   37.773   76.839
  O    25.001   37.435   77.985
  C    24.629   38.831   76.106
  C    23.516   39.586   76.761
  C    25.056   39.094   74.863
  H    28.782   41.205   73.828
  H    29.740   41.545   72.550
  H    28.824   39.972   71.383
  H    26.727   41.599   71.349
  H    24.999   39.709   71.792
  H    25.531   40.627   73.033
  H    26.426   38.003   72.279
  H    26.760   36.385   76.648
  H    23.168   40.280   76.131
  H    22.779   38.953   76.999
  H    23.856   40.029   77.590
  H    24.598   39.820   74.351
  C    27.298   37.937   61.080
  C    27.082   38.726   63.124
  C    27.369   40.016   62.714
  C    27.627   40.210   61.347
  C    27.038   40.125   64.810
  P    26.350   40.931   68.882
  O    27.541   41.678   68.409
  O    25.176   41.673   69.390
  O    25.891   39.890   67.770
  N    26.853   38.806   64.479
  N    27.031   37.627   62.346
  N    27.582   39.128   60.544
  N    27.918   41.396   60.806
  N    27.342   40.890   63.791
  C    27.853   39.266   59.088
  C    27.345   37.584   66.615
  C    24.818   38.983   68.008
  C    25.060   37.695   67.258
  O    25.160   37.994   65.847
  C    26.470   37.715   65.374
  C    26.372   37.010   67.630
  O    26.251   35.594   67.435
  H    27.957   42.212   61.382
  H    28.097   41.468   59.825
  H    28.044   40.224   58.874
  H    28.643   38.705   58.841
  H    27.054   38.962   58.570
  H    23.961   39.393   67.695
  H    24.757   38.790   68.987
  H    27.284   37.170   60.438
  H    26.949   40.471   65.744
  H    27.694   38.474   66.909
  H    28.112   36.962   66.455
  H    26.469   36.851   64.870
  H    26.647   37.229   68.566
  H    24.298   37.067   67.415
  P    25.438   34.695   68.496
  O    25.880   33.297   68.272
  O    24.003   35.035   68.391
  O    25.969   35.161   69.925
  C    27.341   35.016   70.275
  C    27.493   34.092   71.463
  O    26.891   34.685   72.638
  C    26.830   32.725   71.318
  O    27.517   31.820   72.183
  C    25.483   32.936   71.983
  C    25.878   33.830   73.141
  N    24.802   34.672   73.700
  C    24.422   34.446   75.009
  O    24.920   33.576   75.706
  N    23.435   35.282   75.471
  C    22.806   36.293   74.774
  O    21.942   36.973   75.328
  C    23.242   36.468   73.404
  C    22.605   37.540   72.574
  C    24.204   35.658   72.941
  H    27.718   35.913   70.506
  H    27.840   34.635   69.497
  H    28.468   33.956   71.638
  H    26.766   32.407   70.372
  H    28.273   31.394   71.687
  H    25.090   32.073   72.301
  H    24.837   33.391   71.370
  H    26.262   33.265   73.872
  H    23.140   35.143   76.416
  H    23.008   37.537   71.659
  H    21.622   37.369   72.506
  H    22.759   38.430   73.003
  H    24.505   35.774   71.994
