396

 Fe    29.660   18.780   10.821
  N    31.725   14.226    7.716
  C    30.962   13.881    8.912
  C    31.383   12.516    9.459
  O    31.483   11.536    8.711
  C    29.462   13.861    8.622
  C    28.607   13.856    9.910
  C    28.485   15.238   10.537
  O    29.370   16.071   10.260
  O    27.518   15.490   11.300
  H    31.247   14.327    6.844
  H    31.140   14.572    9.612
  H    29.249   13.039    8.093
  H    29.229   14.672    8.086
  H    29.031   13.240   10.573
  H    27.691   13.524    9.685
  N    32.278   19.673    4.960
  C    31.508   20.853    5.332
  C    32.103   21.533    6.589
  O    32.911   20.931    7.317
  C    30.041   20.467    5.583
  C    29.845   19.508    6.717
  N    30.172   18.170    6.633
  C    29.318   19.687    7.957
  C    29.854   17.567    7.764
  N    29.333   18.464    8.582
  H    32.464   18.965    5.642
  H    31.539   21.504    4.574
  H    29.680   20.046    4.750
  H    29.527   21.301    5.785
  H    30.586   17.726    5.838
  H    28.983   20.547    8.342
  H    29.985   16.597    7.967
  O    29.438   17.608   12.866
  H    30.187   17.212   13.397
  H    28.684   16.961   12.978
  O    27.705   18.353   11.267
  H    27.640   17.355   11.279
  H    26.884   18.652   10.780
  O    29.788   20.673   14.033
  H    29.682   19.744   13.679
  H    29.001   21.171   13.669
  N    35.690   24.013   11.629
  C    36.601   23.546   10.586
  C    35.928   22.579    9.613
  O    34.927   21.938    9.942
  C    37.711   22.831   11.367
  C    37.566   23.290   12.740
  C    36.099   23.498   12.942
  H    36.980   24.326   10.088
  H    37.594   21.839   11.314
  H    38.610   23.080   11.007
  H    37.912   22.601   13.377
  H    38.062   24.148   12.876
  H    35.635   22.639   13.158
  H    35.921   24.164   13.667
  H    34.908   24.631   11.437
  N    36.522   22.489    8.427
  C    36.066   21.599    7.393
  C    36.368   20.155    7.722
  O    37.436   19.832    8.249
  C    36.746   21.922    6.078
  C    35.985   22.872    5.234
  C    34.791   22.484    4.650
  C    36.473   24.156    5.001
  C    34.092   23.364    3.837
  C    35.785   25.042    4.193
  C    34.590   24.649    3.604
  H    37.320   23.064    8.246
  H    35.078   21.708    7.283
  H    36.866   21.071    5.567
  H    37.641   22.321    6.275
  H    34.431   21.566    4.815
  H    37.333   24.441    5.424
  H    33.231   23.079    3.417
  H    36.146   25.961    4.033
  H    34.088   25.283    3.016
  N    35.418   19.286    7.406
  C    35.605   17.871    7.633
  C    34.604   17.079    6.816
  O    33.841   17.624    6.036
  C    35.430   17.533    9.133
  C    34.066   17.812    9.673
  N    33.588   19.094    9.864
  C    33.067   16.980   10.056
  C    32.351   19.037   10.339
  N    32.010   17.766   10.464
  H    34.562   19.613    7.006
  H    36.529   17.616    7.349
  H    36.090   18.074    9.655
  H    35.623   16.560    9.259
  H    34.096   19.934    9.674
  H    33.092   15.980   10.045
  H    31.774   19.822   10.564
  N    34.654   15.777    7.024
  C    33.762   14.796    6.455
  C    33.044   14.410    7.760
  O    33.691   14.339    8.815
  C    34.577   13.631    5.909
  C    34.992   13.804    4.479
  N    34.106   13.671    3.432
  C    36.193   14.088    3.920
  C    34.744   13.864    2.292
  N    36.012   14.118    2.557
  H    35.374   15.440    7.630
  H    33.142   15.186    5.774
  H    34.026   12.800    5.979
  H    35.401   13.533    6.467
  H    33.132   13.461    3.521
  H    37.051   14.246    4.408
  H    34.335   13.824    1.380
  H    36.723   14.302    1.879
  N    31.625   12.479   10.774
  C    32.054   11.273   11.495
  C    33.211   10.547   10.780
  O    33.232    9.307   10.688
  C    30.847   10.337   11.665
  C    29.875   10.758   12.767
  S    28.218   10.197   12.438
  C    28.080    8.682   13.481
  H    31.507   13.323   11.298
  H    32.369   11.546   12.404
  H    31.188    9.422   11.881
  H    30.347   10.311   10.799
  H    29.872   11.756   12.832
  H    30.182   10.369   13.635
  H    27.171    8.281   13.368
  H    28.774    8.019   13.199
  H    28.221    8.924   14.441
  N    34.175   11.318   10.285
  C    35.312   10.757    9.557
  C    36.214    9.731   10.266
  O    37.029    9.088    9.617
  C    36.173   11.893    9.023
  H    34.121   12.308   10.414
  H    34.932   10.292    8.757
  H    36.952   11.514    8.524
  H    35.629   12.463    8.408
  H    36.504   12.448    9.786
  H    36.129    9.608   11.351
  N    30.388    5.652    9.149
  C    30.014    7.058    9.021
  C    28.813    7.263    8.055
  O    28.458    6.362    7.284
  C    31.231    7.832    8.557
  C    31.866    7.254    7.328
  C    31.365    7.561    6.058
  C    32.956    6.379    7.437
  C    31.947    7.001    4.907
  C    33.541    5.818    6.302
  C    33.036    6.128    5.024
  H    31.101    5.274    8.559
  H    29.752    7.397    9.925
  H    31.907    7.832    9.294
  H    30.953    8.772    8.359
  H    30.587    8.183    5.968
  H    33.319    6.154    8.341
  H    31.583    7.226    4.003
  H    34.318    5.196    6.395
  H    33.452    5.728    4.207
  H    29.936    5.061    9.824
  N    28.166    8.438    8.103
  C    27.024    8.645    7.191
  C    27.471    8.651    5.733
  O    28.531    9.170    5.412
  C    26.481   10.022    7.588
  C    27.254   10.406    8.837
  C    28.544    9.694    8.768
  H    26.329    7.941    7.339
  H    26.641   10.686    6.858
  H    25.502    9.970    7.783
  H    27.406   11.394    8.859
  H    26.749   10.128    9.654
  H    29.212   10.205    8.227
  H    28.914    9.524    9.681
  H    26.822    8.163    5.001
  N    24.137   13.200    4.121
  C    23.703   14.104    5.188
  C    22.712   15.158    4.686
  O    22.799   15.579    3.536
  C    24.957   14.803    5.728
  C    25.016   15.283    7.158
  C    26.429   15.786    7.396
  C    23.990   16.384    7.438
  H    24.358   13.589    3.227
  H    23.278   13.572    5.921
  H    25.108   15.606    5.151
  H    25.715   14.161    5.611
  H    24.839   14.511    7.768
  H    26.512   16.115    8.337
  H    27.078   15.040    7.245
  H    26.628   16.534    6.763
  H    24.063   16.672    8.393
  H    24.168   17.165    6.840
  H    23.070   16.034    7.265
  H    24.223   12.205    4.246
  H    21.947   15.497    5.404
  N    20.755   18.986    5.842
  C    20.753   20.174    6.697
  C    19.500   20.935    6.325
  O    19.135   21.001    5.151
  C    21.965   21.083    6.443
  C    23.236   20.548    6.978
  C    23.288   20.052    8.268
  C    24.364   20.493    6.188
  C    24.440   19.501    8.769
  C    25.559   19.932    6.673
  C    25.592   19.436    7.964
  H    20.639   19.112    4.857
  H    20.720   19.905    7.660
  H    21.790   21.969    6.873
  H    22.065   21.206    5.456
  H    22.472   20.096    8.845
  H    24.332   20.857    5.257
  H    24.461   19.147    9.704
  H    26.373   19.892    6.093
  H    26.433   19.032    8.324
  H    20.868   18.042    6.195
  H    18.961   21.421    7.143
  N    26.520   27.407    5.900
  C    27.154   26.119    6.066
  C    28.002   25.868    4.841
  O    27.583   25.180    3.911
  C    26.156   25.013    6.207
  O    25.464   25.198    7.439
  C    26.861   23.637    6.201
  H    25.788   27.506    5.226
  H    27.740   26.141    6.876
  H    25.504   25.055    5.450
  H    25.814   26.014    7.899
  H    26.178   22.912    6.296
  H    27.355   23.519    5.339
  H    27.506   23.590    6.964
  H    26.795   28.205    6.443
  N    29.236   26.407    4.843
  C    30.121   26.218    3.689
  C    30.347   24.737    3.390
  O    30.379   23.929    4.288
  C    31.397   26.929    4.117
  C    30.900   27.929    5.174
  C    29.930   27.106    5.941
  H    29.733   26.671    2.886
  H    32.052   26.285    4.512
  H    31.820   27.403    3.345
  H    31.649   28.245    5.756
  H    30.453   28.716    4.749
  H    30.393   26.464    6.552
  H    29.301   27.675    6.471
  N    30.514   24.416    2.112
  C    30.730   23.058    1.651
  C    31.850   23.076    0.633
  O    32.154   24.127    0.039
  C    29.445   22.462    0.994
  C    28.929   23.379   -0.120
  C    28.350   22.315    2.013
  C    27.668   22.800   -0.854
  H    30.490   25.149    1.432
  H    30.999   22.486    2.426
  H    29.659   21.564    0.609
  H    29.659   23.506   -0.792
  H    28.687   24.263    0.281
  H    27.536   21.933    1.575
  H    28.654   21.703    2.743
  H    28.131   23.211    2.399
  H    27.376   23.437   -1.568
  H    27.898   21.919   -1.267
  H    26.927   22.675   -0.195
  H    32.380   22.126    0.475
  N    39.620   12.253    2.240
  C    38.783   11.867    3.378
  C    39.579   11.718    4.688
  O    40.128   10.651    4.989
  C    38.062   10.554    3.056
  C    36.879   10.282    3.931
  C    37.041    9.724    5.197
  C    35.585   10.558    3.483
  C    35.929    9.436    6.007
  C    34.474   10.275    4.277
  C    34.643    9.710    5.549
  H    40.055   11.539    1.691
  H    38.092   12.577    3.512
  H    38.713    9.803    3.164
  H    37.750   10.591    2.107
  H    37.961    9.526    5.534
  H    35.453   10.965    2.579
  H    36.062    9.034    6.913
  H    33.555   10.476    3.938
  H    33.849    9.506    6.121
  H    39.769   13.217    1.996
  H    39.615   12.602    5.335
  N    23.840   16.474    1.040
  C    25.266   16.326    0.789
  C    25.647   14.857    0.752
  O    25.199   14.099    1.597
  C    26.081   17.015    1.945
  C    26.101   18.542    1.763
  C    27.470   16.428    2.042
  C    26.832   19.301    2.927
  H    23.460   16.097    1.885
  H    25.498   16.754   -0.085
  H    25.610   16.819    2.805
  H    25.157   18.868    1.716
  H    26.569   18.753    0.905
  H    27.971   16.878    2.781
  H    27.405   15.448    2.232
  H    27.953   16.569    1.178
  H    26.810   20.285    2.749
  H    26.370   19.108    3.793
  H    27.782   18.993    2.981
  H    23.225   16.938    0.402
  H    26.306   14.525   -0.067
  N    28.180   12.554    1.741
  C    29.340   12.591    2.647
  C    30.662   11.974    2.094
  O    31.714   12.109    2.727
  C    28.959   11.945    3.982
  C    29.862   12.385    5.133
  O    30.225   13.563    5.241
  N    30.209   11.443    6.013
  H    27.348   12.078    2.028
  H    29.528   13.555    2.836
  H    29.025   10.952    3.886
  H    28.016   12.197    4.201
  H    29.894   10.502    5.889
  H    30.784   11.678    6.797
  H    28.209   13.000    0.836
  H    30.617   11.444    1.118
  N    31.962   15.417   -0.241
  C    31.931   16.794    0.253
  C    32.354   17.022    1.724
  O    31.873   16.311    2.634
  C    30.460   17.331    0.085
  C    30.294   18.687    0.707
  C    30.077   17.332   -1.401
  H    31.584   14.676    0.314
  H    32.529   17.345   -0.329
  H    29.847   16.699    0.559
  H    29.352   18.998    0.583
  H    30.501   18.633    1.684
  H    30.919   19.333    0.269
  H    29.143   17.673   -1.504
  H    30.706   17.923   -1.907
  H    30.133   16.400   -1.760
  H    32.364   15.219   -1.139
  N    33.236   17.988    1.987
  C    33.548   18.278    3.401
  C    32.733   19.532    3.726
  O    32.511   20.363    2.863
  C    35.038   18.561    3.623
  C    36.029   17.480    3.154
  C    36.567   17.876    1.780
  C    37.224   17.342    4.154
  H    33.673   18.501    1.248
  H    33.253   17.518    3.980
  H    35.178   18.694    4.604
  H    35.261   19.406    3.137
  H    35.553   16.603    3.083
  H    37.213   17.182    1.462
  H    35.808   17.946    1.133
  H    37.032   18.759    1.846
  H    37.852   16.635    3.828
  H    37.708   18.215    4.217
  H    36.876   17.088    5.056
  N    31.705   22.780    6.828
  C    32.168   23.557    7.982
  C    31.123   24.623    8.307
  O    30.010   24.558    7.788
  C    33.523   24.227    7.697
  O    33.470   25.084    6.551
  H    31.061   23.206    6.192
  H    32.266   22.946    8.768
  H    34.207   23.515    7.536
  H    33.788   24.770    8.494
  H    32.547   25.069    6.166
  H    31.400   25.398    9.047
  N    21.142   11.951    9.267
  C    22.268   11.194    8.712
  C    21.826    9.863    8.070
  O    20.917    9.190    8.553
  C    23.331   10.940    9.801
  C    23.832   12.164   10.597
  C    24.642   11.729   11.854
  C    24.669   13.059    9.694
  H    20.600   11.563   10.013
  H    22.690   11.753    7.998
  H    24.125   10.525    9.356
  H    22.941   10.294   10.457
  H    23.036   12.686   10.903
  H    24.952   12.541   12.348
  H    24.060   11.178   12.452
  H    25.434   11.189   11.570
  H    24.991   13.850   10.214
  H    25.454   12.544    9.350
  H    24.112   13.371    8.924
  H    20.911   12.862    8.900
  H    22.369    9.570    7.160
