962

  C    19.659    8.443   10.541
  C    19.330    9.903   10.435
  C    18.688   10.366   11.681
  C    19.595   10.130   12.892
  C    19.043   10.634   14.356
  C    20.567    8.179   11.713
  O    20.756    6.783   11.837
  O    20.309    8.062    9.372
  O    18.453   10.105    9.352
  O    18.504   11.741   11.461
  O    19.872    8.677   12.874
  O    18.014    9.836   14.968
  H    18.092    9.898   15.963
  H    21.238    6.439   11.031
  H    19.713    8.234    8.588
  H    18.232   11.078    9.279
  H    19.822   10.656   14.982
  H    18.681   11.559   14.241
  H    21.443    8.647   11.596
  H    18.816    7.915   10.644
  H    20.171   10.422   10.282
  H    17.807    9.911   11.810
  H    20.459   10.603   12.717
  C    17.178   12.176   11.262
  C    16.436   12.338   12.619
  C    15.163   13.139   12.414
  C    15.475   14.454   11.761
  C    16.229   14.214   10.440
  C    16.719   15.520    9.806
  O    16.082   11.155   13.328
  O    14.709   13.368   13.743
  O    16.301   15.220   12.697
  O    17.401   13.411   10.638
  O    17.400   15.169    8.620
  H    17.738   15.997    8.172
  H    16.827   10.900   13.944
  H    15.942   16.112    9.594
  H    17.339   15.994   10.431
  H    16.684   11.553   10.656
  H    17.030   12.875   13.218
  H    14.490   12.622   11.885
  H    14.626   14.949   11.579
  H    15.620   13.749    9.798
  C    15.790   16.461   13.130
  C    16.583   16.849   14.346
  C    16.043   18.202   14.784
  C    16.139   19.253   13.674
  C    15.400   18.754   12.452
  C    15.493   19.643   11.221
  C    17.275   14.985   15.833
  C    16.754   13.885   16.793
  N    16.333   15.756   15.296
  O    16.804   18.641   15.879
  O    17.453   19.580   13.313
  O    15.901   17.430   12.105
  O    14.632   19.081   10.227
  O    18.487   15.144   15.603
  H    13.694   19.057   10.573
  H    17.758   18.974   12.579
  H    15.384   15.579   15.558
  H    15.756   13.927   16.838
  H    17.035   12.987   16.455
  H    17.135   14.031   17.706
  H    15.197   20.571   11.446
  H    16.435   19.666   10.885
  H    14.828   16.354   13.382
  H    15.687   20.086   13.993
  H    15.088   18.102   15.064
  H    14.434   18.663   12.693
  H    17.557   16.911   14.128
  C    16.073   19.009   17.013
  C    17.095   19.365   18.155
  C    16.309   19.803   19.381
  C    15.451   21.058   18.999
  C    14.476   20.673   17.830
  C    13.673   21.885   17.391
  O    17.948   18.289   18.500
  O    17.228   20.081   20.436
  O    16.237   22.206   18.633
  O    15.220   20.173   16.692
  O    12.881   21.580   16.255
  H    13.474   21.296   15.502
  H    18.772   18.322   17.934
  H    17.387   19.249   20.967
  H    16.033   22.962   19.255
  H    13.075   22.171   18.140
  H    14.301   22.629   17.163
  H    15.499   18.244   17.304
  H    17.659   20.132   17.849
  H    15.700   19.062   19.663
  H    14.896   21.305   19.794
  H    13.848   19.963   18.148
  C    13.295   13.928   15.478
  C    13.321   13.494   14.026
  C    12.579   12.140   13.801
  C    11.099   12.243   14.116
  C    10.510   13.383   13.320
  C    11.268   14.717   13.502
  C    10.816   15.821   12.578
  C    11.758   17.010   12.612
  C    11.117   18.158   11.822
  C     8.229   13.829   12.950
  C     6.830   13.903   13.561
  N     9.169   13.489   13.819
  O    13.491   15.130   15.747
  O    13.060   13.091   16.364
  O    10.408   11.029   13.805
  O    12.682   14.516   13.241
  O    10.798   15.349   11.249
  O    12.064   17.395   13.937
  O    11.997   19.245   11.683
  O     8.485   14.111   11.774
  H    12.250   19.587   12.588
  H    12.479   16.624   14.421
  H     9.628   10.922   14.422
  H     9.907   14.940   11.053
  H     8.954   13.314   14.780
  H     6.871   13.629   14.522
  H     6.487   14.840   13.496
  H     6.217   13.288   13.065
  H    10.866   17.826   10.913
  H    10.296   18.465   12.304
  H    12.687   11.868   12.845
  H    12.988   11.446   14.394
  H    12.609   16.750   12.155
  H    10.988   12.438   15.091
  H     9.897   16.117   12.838
  H    11.156   15.023   14.447
  H    10.489   13.139   12.350
  N     8.251   20.381   15.080
  C     8.246   20.362   13.624
  C     7.336   19.325   13.020
  O     7.452   18.142   13.361
  H     9.125   20.295   15.558
  H     9.178   20.181   13.310
  H     7.954   21.262   13.300
  N     6.478   19.763   12.089
  C     5.484   18.913   11.420
  C     4.290   18.604   12.323
  O     3.419   17.822   11.964
  C     6.088   17.592   10.911
  C     6.986   17.701    9.683
  C     6.279   18.411    8.511
  C     4.969   17.732    8.004
  N     3.658   18.333    8.498
  H     6.517   20.729   11.833
  H     5.141   19.415   10.626
  H     5.333   16.977   10.685
  H     6.630   17.197   11.653
  H     7.248   16.781    9.392
  H     7.805   18.219    9.927
  H     6.920   18.453    7.745
  H     6.051   19.339    8.806
  H     4.992   16.774    8.291
  H     4.968   17.780    7.005
  H     2.948   18.198    7.807
  H     3.385   17.884    9.349
  H     3.781   19.312    8.663
  N     4.260   19.205   13.500
  C     3.167   18.984   14.438
  C     2.827   20.301   15.088
  O     2.689   20.379   16.317
  C     3.583   17.996   15.525
  C     3.626   16.556   15.077
  C     2.238   16.007   14.801
  N     2.310   14.594   14.450
  C     2.568   14.139   13.229
  N     2.764   14.989   12.225
  N     2.677   12.832   13.019
  H     5.003   19.825   13.752
  H     2.368   18.632   13.949
  H     2.931   18.069   16.280
  H     4.495   18.251   15.846
  H     4.054   16.007   15.795
  H     4.170   16.494   14.240
  H     1.828   16.514   14.043
  H     1.673   16.115   15.619
  H     2.155   13.924   15.176
  H     2.958   14.643   11.307
  H     2.717   15.975   12.388
  H     2.871   12.488   12.100
  H     2.565   12.192   13.779
  N     6.726   11.129   19.510
  C     7.056   11.124   18.084
  C     8.408   11.753   17.747
  O     8.771   11.874   16.567
  C     5.974   11.831   17.281
  C     4.670   11.063   17.157
  C     3.702   11.800   16.273
  O     3.104   12.782   16.764
  O     3.581   11.426   15.083
  H     6.198   11.890   19.887
  H     7.082   10.171   17.783
  H     6.327   11.995   16.360
  H     5.779   12.706   17.724
  H     4.266   10.952   18.065
  H     4.855   10.163   16.763
  N     9.133   12.188   18.766
  C    10.436   12.794   18.555
  C    11.471   12.103   19.430
  O    11.148   11.451   20.430
  C    10.401   14.313   18.859
  C     9.444   15.096   17.975
  C     8.077   15.158   18.273
  C     9.882   15.674   16.789
  C     7.165   15.754   17.409
  C     8.980   16.274   15.909
  C     7.618   16.303   16.228
  O     6.720   16.814   15.335
  H     8.778   12.098   19.696
  H    10.694   12.667   17.597
  H    11.322   14.681   18.730
  H    10.123   14.437   19.811
  H     7.748   14.763   19.131
  H    10.856   15.660   16.563
  H     6.193   15.784   17.641
  H     9.305   16.681   15.055
  H     7.041   17.214   14.476
  N    12.720   12.230   19.033
  C    13.872   11.703   19.744
  C    14.281   12.741   20.741
  O    14.043   13.913   20.517
  C    14.957   11.420   18.715
  C    14.775   10.123   18.047
  N    14.291    9.056   18.748
  C    14.892    9.691   16.768
  C    14.103    8.017   17.956
  N    14.469    8.382   16.725
  H    12.888   12.725   18.180
  H    13.623   10.858   20.216
  H    15.844   11.422   19.176
  H    14.939   12.142   18.023
  H    15.226   10.228   15.993
  H    13.751    7.121   18.227
  H    14.441    7.803   15.911
  N    14.909   12.319   21.833
  C    15.431   13.253   22.832
  C    14.375   14.139   23.503
  O    14.624   15.323   23.781
  C    16.522   14.155   22.220
  C    17.573   13.382   21.439
  O    18.149   12.414   21.949
  N    17.839   13.800   20.218
  H    15.028   11.337   21.976
  H    15.863   12.709   23.551
  H    16.977   14.650   22.960
  H    16.084   14.808   21.602
  H    17.351   14.588   19.842
  H    18.530   13.330   19.668
  N    13.611   28.083   22.589
  C    14.856   28.346   21.875
  C    14.876   29.519   20.918
  O    13.860   29.859   20.325
  C    15.267   27.123   21.063
  C    15.705   25.930   21.850
  C    16.242   24.841   20.941
  O    17.447   24.868   20.619
  O    15.465   23.958   20.535
  H    13.157   27.199   22.475
  H    15.567   28.505   22.560
  H    16.024   27.392   20.468
  H    14.484   26.850   20.504
  H    14.924   25.572   22.362
  H    16.424   26.206   22.488
  N    17.990   24.549   13.287
  C    17.366   23.274   13.626
  C    15.854   23.330   13.387
  O    15.179   22.302   13.362
  C    17.659   22.869   15.081
  C    16.985   23.697   16.165
  C    17.791   24.896   16.569
  O    18.401   25.560   15.735
  N    17.791   25.198   17.853
  H    18.252   25.185   14.013
  H    17.749   22.572   13.026
  H    18.647   22.932   15.221
  H    17.366   21.920   15.197
  H    16.848   23.119   16.969
  H    16.098   24.009   15.824
  H    17.281   24.631   18.500
  H    18.301   25.994   18.179
  N    15.342   24.542   13.188
  C    13.911   24.770   12.985
  C    13.529   24.831   11.514
  O    14.241   25.421   10.708
  C    13.488   26.094   13.646
  C    13.750   26.148   15.122
  N    14.571   27.096   15.696
  C    13.322   25.361   16.132
  C    14.638   26.883   16.998
  N    13.894   25.839   17.291
  H    15.960   25.328   13.177
  H    13.405   24.023   13.415
  H    12.508   26.222   13.495
  H    13.992   26.839   13.209
  H    12.705   24.578   16.054
  H    15.166   27.425   17.652
  H    13.765   25.455   18.205
  N    12.425   24.191   11.163
  C    11.942   24.252    9.794
  C    11.003   25.461    9.718
  O    10.539   25.967   10.753
  C    11.254   22.943    9.354
  C    10.163   22.535   10.339
  C    12.304   21.851    9.216
  C     9.484   21.245    9.979
  H    11.920   23.662   11.845
  H    12.722   24.418    9.190
  H    10.833   23.092    8.459
  H     9.474   23.259   10.366
  H    10.575   22.434   11.244
  H    11.864   21.000    8.931
  H    12.980   22.123    8.531
  H    12.759   21.713   10.096
  H     8.783   21.036   10.661
  H     9.057   21.333    9.079
  H    10.159   20.508    9.957
  N     7.814   25.957   11.918
  C     7.737   26.164   13.343
  C     8.075   27.562   13.827
  O     7.859   27.863   14.991
  C     8.465   25.051   14.091
  C     9.884   24.888   13.707
  C    10.487   23.563   14.151
  O    11.328   23.024   13.456
  N    10.104   23.064   15.316
  H     8.673   25.726   11.462
  H     6.771   26.039   13.570
  H     7.990   24.190   13.910
  H     8.426   25.254   15.069
  H    10.411   25.630   14.122
  H     9.951   24.948   12.711
  H     9.410   23.537   15.858
  H    10.509   22.214   15.654
  N    12.685   18.896   24.841
  C    13.849   18.245   24.264
  C    14.881   18.258   25.386
  O    15.178   19.321   25.936
  C    14.387   19.050   23.077
  C    13.637   18.811   21.838
  C    13.650   17.676   21.089
  C    12.719   19.703   21.211
  N    12.789   17.803   20.031
  C    12.203   19.038   20.083
  C    12.279   20.997   21.494
  C    11.271   19.625   19.240
  C    11.360   21.573   20.659
  C    10.863   20.892   19.543
  H    12.517   19.860   24.635
  H    13.633   17.308   23.990
  H    15.342   18.796   22.926
  H    14.332   20.023   23.300
  H    14.206   16.868   21.282
  H    12.617   17.107   19.334
  H    12.628   21.493   22.290
  H    10.912   19.140   18.443
  H    11.037   22.500   20.851
  H    10.193   21.344   18.953
  N    18.052   17.327   25.069
  C    19.416   17.474   24.543
  C    19.884   18.934   24.512
  O    20.866   19.258   23.850
  C    19.567   16.817   23.152
  C    18.755   17.502   22.072
  O    17.673   18.021   22.320
  N    19.259   17.471   20.859
  H    17.273   17.390   24.445
  H    20.025   16.984   25.166
  H    19.269   15.865   23.217
  H    20.532   16.847   22.890
  H    20.146   17.038   20.697
  H    18.756   17.881   20.098
  N    19.202   19.797   25.272
  C    19.533   21.225   25.348
  C    19.469   21.626   26.822
  O    18.766   20.994   27.601
  C    18.498   22.086   24.573
  C    18.469   21.941   23.061
  C    19.719   22.506   22.423
  C    19.899   21.997   20.993
  N    18.798   22.377   20.055
  H    18.433   19.455   25.812
  H    20.452   21.385   24.988
  H    18.690   23.045   24.780
  H    17.590   21.846   24.916
  H    17.673   22.429   22.703
  H    18.397   20.971   22.829
  H    20.513   22.234   22.967
  H    19.653   23.504   22.407
  H    19.954   20.999   21.022
  H    20.756   22.368   20.635
  H    19.164   22.463   19.129
  H    18.090   21.671   20.069
  H    18.404   23.251   20.340
  O    20.225   21.695   17.388
  H    20.067   21.143   16.570
  H    20.743   21.095   17.998
  O    16.484   16.125   18.862
  H    17.039   16.945   18.725
  H    15.543   16.462   18.896
  O    11.033    8.961   17.598
  H    12.027    8.961   17.489
  H    10.679    8.961   16.663
  O    12.962   24.495   19.899
  H    13.911   24.291   20.140
  H    12.521   23.599   19.839
  O    19.748   17.750   16.310
  H    18.800   18.037   16.171
  H    19.807   16.856   15.865
  O    20.358   14.034   17.769
  H    19.749   14.396   17.063
  H    20.679   13.162   17.400
  O    19.730   19.968   14.829
  H    18.906   19.828   14.280
  H    20.099   19.049   14.966
  O    10.922   19.209   15.962
  H    11.309   18.594   15.275
  H    11.598   19.940   16.053
  O    12.927   20.922   13.558
  H    13.777   21.443   13.484
  H    12.208   21.617   13.577
  O    14.393    9.607   11.744
  H    14.999   10.163   12.313
  H    15.011    9.036   11.203
  O    13.913   16.084   18.246
  H    13.757   15.732   17.323
  H    13.952   15.268   18.822
  O    12.757   12.435    9.947
  H    13.220   13.294    9.728
  H    12.291   12.616   10.813
  O    13.215   14.989    9.226
  H    12.819   15.520    8.477
  H    12.568   15.101    9.980
  O    16.323    7.927   10.650
  H    16.854    8.676   10.254
  H    16.435    7.173   10.003
  N     1.654   22.753   20.383
  C     2.968   22.267   20.004
  C     3.656   23.092   18.928
  O     3.049   23.534   17.950
  C     2.858   20.799   19.539
  O     4.003   20.372   18.809
  H     0.981   22.924   19.664
  H     3.547   22.286   20.819
  H     2.052   20.707   18.954
  H     2.754   20.214   20.344
  H     3.727   20.092   17.890
  H     1.392   22.925   21.339
  N     4.953   23.271   19.128
  C     5.799   23.987   18.212
  C     6.721   22.944   17.558
  O     7.573   23.294   16.732
  C     6.552   25.081   18.986
  C     8.009   25.196   19.458
  C     7.975   26.027   20.727
  C     8.706   23.890   19.718
  H     5.364   22.890   19.956
  H     5.233   24.414   17.507
  H     6.025   25.174   19.831
  H     6.424   25.896   18.421
  H     8.527   25.698   18.765
  H     8.904   26.134   21.080
  H     7.589   26.927   20.526
  H     7.409   25.567   21.412
  H     9.643   24.066   20.019
  H     8.216   23.387   20.430
  H     8.722   23.348   18.878
  N     6.508   21.667   17.892
  C     7.298   20.567   17.334
  C     7.138   20.508   15.802
  O     6.030   20.600   15.296
  C     6.890   19.238   17.987
  H     5.783   21.455   18.547
  H     8.261   20.736   17.542
  H     7.435   18.495   17.599
  H     7.049   19.288   18.973
  H     5.920   19.066   17.814
  N     2.759   21.350   14.269
  C     2.443   22.689   14.762
  C     0.918   22.727   14.830
  O     0.250   23.103   13.873
  C     2.989   23.766   13.817
  C     4.514   23.732   13.619
  C     4.984   22.730   12.565
  O     4.159   21.995   11.992
  O     6.198   22.679   12.292
  H     2.928   21.218   13.292
  H     2.827   22.814   15.677
  H     2.743   24.661   14.189
  H     2.556   23.646   12.924
  H     4.939   23.492   14.492
  H     4.815   24.644   13.341
  N     0.390   22.305   15.969
  C    -1.041   22.200   16.168
  C    -1.441   22.518   17.600
  O    -0.580   22.774   18.439
  C    -1.448   20.765   15.859
  C    -0.727   19.735   16.738
  S    -0.923   18.004   16.214
  C    -2.570   17.651   16.815
  H     1.001   22.050   16.718
  H    -1.512   22.823   15.543
  H    -1.234   20.572   14.901
  H    -2.433   20.675   16.005
  H    -1.082   19.819   17.669
  H     0.249   19.952   16.733
  H    -2.812   16.707   16.589
  H    -2.596   17.773   17.807
  H    -3.223   18.275   16.385
  H    -2.519   22.511   17.813
  N    -2.648   20.870   11.463
  C    -1.391   21.470   11.061
  C    -1.721   22.074    9.679
  O    -2.534   21.514    8.930
  C    -0.304   20.350   10.894
  C     0.975   20.908   10.288
  C    -0.014   19.691   12.223
  H    -2.722   19.873   11.488
  H    -1.097   22.173   11.708
  H    -0.666   19.654   10.273
  H     1.647   20.174   10.194
  H     0.776   21.295    9.388
  H     1.342   21.622   10.884
  H     0.679   18.981   12.099
  H     0.323   20.377   12.869
  H    -0.852   19.279   12.581
  H    -3.448   21.425   11.718
  H    -1.297   23.066    9.429
  N    -3.701   13.512   14.460
  C    -2.951   12.246   14.716
  C    -2.683   12.062   16.228
  O    -3.443   11.356   16.891
  C    -1.701   12.193   13.829
  O    -1.857   13.158   12.775
  C    -1.529   10.787   13.214
  H    -4.694   13.536   14.572
  H    -3.544   11.493   14.431
  H    -0.894   12.421   14.374
  H    -1.483   14.037   13.070
  H    -0.710   10.772   12.640
  H    -1.435   10.112   13.946
  H    -2.330   10.566   12.658
  N    -1.604   12.661   16.799
  C    -1.497   12.410   18.244
  C    -2.728   13.020   18.922
  O    -3.225   14.056   18.495
  C    -0.218   13.152   18.620
  C    -0.136   14.245   17.617
  C    -0.509   13.534   16.347
  H    -1.421   11.432   18.439
  H    -0.280   13.523   19.547
  H     0.577   12.548   18.555
  H    -0.783   14.979   17.826
  H     0.789   14.621   17.564
  H    -0.822   14.177   15.648
  H     0.258   13.001   15.990
  H    -3.166   12.456   19.746
  N     1.526   11.423   23.532
  C     1.650   10.783   22.229
  C     2.451   11.615   21.261
  O     3.221   11.092   20.454
  C     0.275   10.549   21.630
  C    -0.253    9.200   21.964
  O     0.048    8.257   21.200
  O    -0.921    9.077   23.013
  H     0.614   11.666   23.861
  H     2.104    9.900   22.346
  H     0.337   10.635   20.636
  H    -0.354   11.240   21.986
  H     2.319   11.631   24.115
  N     2.218   12.919   21.318
  C     2.900   13.866   20.470
  C     4.385   13.805   20.770
  O     5.202   13.626   19.869
  C     2.370   15.267   20.778
  C     2.485   16.271   19.639
  C     1.588   17.459   19.954
  C     3.933   16.692   19.422
  H     1.544   13.259   21.974
  H     2.737   13.643   19.509
  H     2.881   15.626   21.559
  H     1.404   15.185   21.021
  H     2.153   15.838   18.801
  H     1.651   18.130   19.215
  H     0.642   17.148   20.042
  H     1.882   17.880   20.812
  H     3.980   17.350   18.670
  H     4.286   17.114   20.257
  H     4.484   15.888   19.196
  N     4.706   13.897   22.059
  C     6.075   13.905   22.550
  C     6.833   12.673   22.123
  O     8.008   12.768   21.749
  C     6.086   13.977   24.074
  S     7.530   14.841   24.766
  H     3.965   13.964   22.727
  H     6.542   14.711   22.187
  H     6.077   13.044   24.433
  H     5.261   14.457   24.372
  N     6.153   11.526   22.164
  C     6.738   10.243   21.796
  C     7.115   10.140   20.317
  O     7.764    9.170   19.913
  C     5.816    9.113   22.191
  H     5.198   11.548   22.461
  H     7.580   10.138   22.325
  H     6.229    8.240   21.933
  H     5.669    9.133   23.180
  H     4.939    9.218   21.722
  N    13.194   13.582   23.754
  C    12.144   14.340   24.418
  C    11.682   13.595   25.657
  O    11.894   12.390   25.785
  C    10.936   14.601   23.510
  O    10.418   13.354   23.030
  C    11.319   15.505   22.338
  H    13.026   12.634   23.484
  H    12.522   15.221   24.702
  H    10.226   15.057   24.046
  H     9.630   13.526   22.438
  H    10.517   15.661   21.761
  H    11.653   16.380   22.688
  H    12.037   15.065   21.799
  H    11.198   14.193   26.433
  N    14.993   35.168   23.178
  C    14.361   33.979   23.743
  C    13.555   34.278   25.015
  O    13.547   35.411   25.516
  C    15.463   33.002   24.134
  C    16.461   33.610   25.130
  S    17.702   32.475   25.777
  C    18.569   32.134   24.356
  H    15.289   35.898   23.794
  H    13.765   33.558   23.059
  H    15.958   32.730   23.309
  H    15.044   32.196   24.552
  H    15.942   33.972   25.904
  H    16.938   34.358   24.670
  H    19.312   31.498   24.563
  H    17.956   31.722   23.682
  H    18.949   32.982   23.986
  H    15.140   35.276   22.190
  H    13.031   33.419   25.458
  N    13.359   26.663   28.408
  C    13.508   27.763   27.449
  C    12.695   27.551   26.181
  O    12.257   26.433   25.892
  C    14.986   27.913   26.998
  C    15.549   26.655   26.264
  C    16.855   26.903   25.504
  O    17.077   27.989   24.962
  N    17.710   25.881   25.439
  H    13.545   25.727   28.108
  H    13.214   28.614   27.884
  H    15.547   28.084   27.808
  H    15.049   28.695   26.378
  H    14.861   26.339   25.610
  H    15.713   25.942   26.945
  H    17.492   25.017   25.893
  H    18.569   25.979   24.937
  H    13.076   26.824   29.358
  N    12.436   28.644   25.466
  C    11.805   28.579   24.147
  C    13.071   28.994   23.385
  O    13.642   30.068   23.652
  C    10.677   29.623   23.929
  C    10.189   29.547   22.454
  C     9.501   29.315   24.844
  H    12.680   29.538   25.842
  H    11.511   27.652   23.914
  H    11.024   30.541   24.123
  H     9.462   30.218   22.308
  H    10.953   29.745   21.840
  H     9.838   28.630   22.266
  H     8.779   29.991   24.698
  H     9.149   28.402   24.638
  H     9.802   29.349   25.797
  N    16.067   30.089   20.731
  C    16.270   31.175   19.766
  C    16.010   30.495   18.399
  O    16.424   29.349   18.190
  C    17.763   31.711   19.826
  C    18.010   32.752   18.756
  C    18.055   32.357   21.161
  H    16.847   29.765   21.266
  H    15.619   31.917   19.924
  H    18.391   30.945   19.689
  H    18.955   33.073   18.815
  H    17.851   32.348   17.855
  H    17.387   33.523   18.891
  H    18.999   32.685   21.173
  H    17.433   33.127   21.302
  H    17.926   31.686   21.891
  N    15.241   31.129   17.500
  C    15.004   30.465   16.208
  C    16.317   30.261   15.434
  O    16.991   31.229   15.117
  C    14.090   31.442   15.482
  C    13.384   32.136   16.593
  C    14.482   32.388   17.580
  H    14.540   29.590   16.345
  H    14.620   32.089   14.934
  H    13.443   30.958   14.893
  H    12.977   32.994   16.280
  H    12.673   31.554   16.987
  H    15.043   33.171   17.311
  H    14.119   32.538   18.500
  N    16.689   29.011   15.172
  C    17.911   28.747   14.437
  C    17.727   27.712   13.344
  O    16.601   27.292   13.057
  H    16.122   28.248   15.484
  H    18.604   28.416   15.077
  H    18.224   29.600   14.020
  N    18.839   27.234   12.792
  C    18.847   26.232   11.714
  C    18.211   24.867   12.014
  O    17.950   24.094   11.096
  C    20.283   26.024   11.236
  O    20.887   27.275   10.981
  H    19.717   27.574   13.128
  H    18.340   26.626   10.947
  H    20.278   25.480   10.397
  H    20.802   25.542   11.942
  H    21.332   27.606   11.813
  N    10.766   25.948    8.506
  C     9.934   27.129    8.309
  C     8.626   27.117    9.069
  O     8.237   28.121    9.650
  C     9.636   27.356    6.824
  C    10.836   27.870    6.052
  O    11.796   28.378    6.674
  O    10.807   27.761    4.804
  H    11.167   25.495    7.710
  H    10.457   27.918    8.631
  H     8.896   28.024    6.746
  H     9.345   26.488    6.421
  N     7.982   25.965    9.101
  C     6.697   25.837    9.753
  C     6.675   26.092   11.247
  O     5.624   26.428   11.809
  C     6.102   24.465    9.461
  O     7.002   23.428    9.797
  H     8.391   25.163    8.665
  H     6.090   26.512    9.334
  H     5.886   24.405    8.486
  H     5.264   24.354    9.995
  H     6.587   22.838   10.489
  N     8.449   28.455   12.912
  C     8.784   29.840   13.266
  C     7.579   30.578   13.875
  O     7.731   31.298   14.864
  C     9.275   30.609   12.038
  C    10.336   29.887   11.218
  C    11.686   29.826   11.921
  C    12.699   29.045   11.073
  N    14.118   29.197   11.518
  H     8.503   28.173   11.954
  H     9.520   29.824   13.943
  H     9.659   31.479   12.348
  H     8.489   30.784   11.445
  H    10.450   30.368   10.349
  H    10.024   28.953   11.044
  H    11.577   29.371   12.805
  H    12.025   30.756   12.065
  H    12.631   29.366   10.128
  H    12.460   28.075   11.114
  H    14.714   28.662   10.920
  H    14.380   30.161   11.473
  H    14.209   28.870   12.459
  N     6.405   30.447   13.258
  C     5.200   31.089   13.777
  C     4.812   30.423   15.085
  O     4.404   31.096   16.034
  C     4.045   31.012   12.785
  C     4.186   31.964   11.608
  C     4.057   33.432   12.034
  C     4.527   34.408   10.939
  N     6.025   34.591   10.886
  H     6.348   29.899   12.424
  H     5.403   32.052   13.957
  H     3.198   31.232   13.269
  H     3.994   30.078   12.431
  H     3.471   31.758   10.940
  H     5.084   31.828   11.189
  H     4.612   33.578   12.853
  H     3.098   33.622   12.243
  H     4.107   35.299   11.110
  H     4.221   34.059   10.053
  H     6.257   35.234   10.156
  H     6.348   34.950   11.762
  H     6.462   33.710   10.705
  N     5.019   29.110   15.146
  C     4.703   28.317   16.317
  C     5.595   28.721   17.495
  O     5.149   28.742   18.650
  C     4.864   26.829   15.998
  H     5.410   28.650   14.349
  H     3.750   28.487   16.568
  H     4.644   26.288   16.810
  H     4.245   26.579   15.254
  H     5.808   26.648   15.722
  N     6.836   29.098   17.195
  C     7.768   29.526   18.223
  C     7.267   30.837   18.803
  O     7.244   31.014   20.021
  C     9.221   29.682   17.662
  C     9.823   28.297   17.399
  C    10.108   30.490   18.639
  C    11.163   28.343   16.717
  H     7.133   29.086   16.240
  H     7.779   28.839   18.950
  H     9.174   30.177   16.794
  H     9.191   27.782   16.820
  H     9.930   27.827   18.275
  H    11.029   30.576   18.259
  H     9.715   31.400   18.771
  H    10.153   30.016   19.518
  H    11.497   27.411   16.576
  H    11.072   28.802   15.833
  H    11.811   28.847   17.289
  H     6.875   31.560   18.076
  N     5.859   31.688   22.936
  C     6.277   32.795   23.799
  C     5.026   33.592   24.244
  O     4.911   34.006   25.403
  C     7.277   33.716   23.060
  C     8.655   33.087   22.702
  C     9.614   34.134   22.051
  C    10.152   33.774   20.642
  N    11.583   33.248   20.667
  H     6.229   31.637   22.009
  H     6.725   32.419   24.610
  H     7.447   34.511   23.642
  H     6.846   34.012   22.208
  H     8.511   32.335   22.059
  H     9.078   32.735   23.537
  H    10.400   34.250   22.659
  H     9.119   35.000   21.978
  H    10.124   34.594   20.071
  H     9.561   33.071   20.245
  H    11.876   33.033   19.735
  H    12.187   33.944   21.054
  H    11.625   32.421   21.228
  H     5.211   30.973   23.239
  H     4.244   33.750   23.493
  N     9.526   18.342   26.468
  C    10.738   19.093   26.227
  C    11.841   18.252   25.631
  O    11.909   17.048   25.851
  C    11.272   19.689   27.547
  C    10.234   20.580   28.192
  C    11.656   18.562   28.499
  H     9.579   17.451   26.919
  H    10.531   19.842   25.598
  H    12.086   20.234   27.348
  H    10.600   20.955   29.044
  H    10.004   21.328   27.570
  H     9.412   20.046   28.389
  H    12.002   18.950   29.353
  H    10.852   17.999   28.690
  H    12.366   17.998   28.078
  H     8.634   18.702   26.189
  N    15.401   17.090   25.754
  C    16.393   17.017   26.829
  C    17.840   17.111   26.369
  O    18.749   16.985   27.185
  C    16.202   15.778   27.721
  C    16.219   14.479   26.944
  O    16.824   14.378   25.877
  N    15.543   13.473   27.476
  H    15.111   16.252   25.291
  H    16.232   17.812   27.414
  H    15.323   15.856   28.191
  H    16.940   15.755   28.396
  H    15.065   13.596   28.345
  H    15.511   12.590   27.008
  N    20.173   22.690   27.202
  C    20.152   23.186   28.592
  C    19.985   24.714   28.533
  O    20.770   25.387   27.882
  C    21.463   22.877   29.365
  O    21.612   21.462   29.542
  C    21.425   23.540   30.735
  H    20.733   23.168   26.525
  H    19.376   22.784   29.078
  H    22.243   23.230   28.848
  H    22.584   21.230   29.571
  H    22.272   23.337   31.227
  H    21.333   24.530   30.624
  H    20.646   23.189   31.254
  N    18.919   25.257   29.129
  C    17.825   24.603   29.837
  C    17.097   23.717   28.852
  O    17.303   23.848   27.646
  C    16.907   25.767   30.217
  C    17.807   26.940   30.247
  C    18.674   26.716   29.051
  H    18.143   24.096   30.638
  H    16.187   25.889   29.534
  H    16.493   25.614   31.114
  H    17.291   27.793   30.164
  H    18.349   26.958   31.087
  H    18.200   26.962   28.206
  H    19.527   27.233   29.117
  N    16.231   22.855   29.355
  C    15.450   22.000   28.485
  C    14.556   22.878   27.641
  O    13.985   23.840   28.143
  C    14.647   21.010   29.293
  C    15.497   19.936   29.878
  N    16.787   19.707   29.468
  C    15.241   19.038   30.852
  C    17.297   18.708   30.174
  N    16.375   18.287   31.020
  H    16.114   22.792   30.346
  H    16.071   21.498   27.883
  H    13.962   20.590   28.698
  H    14.189   21.498   30.036
  H    17.266   20.214   28.752
  H    14.383   18.939   31.356
  H    18.221   18.336   30.081
  N    14.478   22.560   26.354
  C    13.720   23.353   25.402
  C    12.289   22.864   25.249
  O    12.039   21.683   24.995
  C    14.432   23.341   24.083
  H    14.958   21.745   26.029
  H    13.693   24.296   25.733
  H    13.917   23.885   23.421
  H    15.346   23.730   24.194
  H    14.508   22.400   23.754
  N    11.343   23.792   25.339
  C     9.938   23.460   25.235
  C     9.522   23.074   23.818
  O     9.851   23.772   22.847
  C     9.064   24.616   25.752
  C     9.390   24.872   27.226
  C     7.573   24.306   25.562
  C     8.913   26.205   27.705
  H    11.609   24.745   25.482
  H     9.771   22.669   25.824
  H     9.286   25.440   25.230
  H    10.382   24.826   27.346
  H     8.954   24.160   27.777
  H     7.027   25.071   25.905
  H     7.382   24.170   24.590
  H     7.338   23.476   26.067
  H     9.152   26.318   28.669
  H     9.348   26.927   27.167
  H     7.920   26.262   27.599
  N     8.866   21.916   23.718
  C     8.355   21.409   22.458
  C     6.834   21.592   22.409
  O     6.289   22.001   21.394
  C     8.730   19.931   22.286
  H     8.720   21.375   24.546
  H     8.765   21.933   21.712
  H     8.372   19.595   21.415
  H     9.725   19.836   22.296
  H     8.337   19.398   23.035
  H     6.279   21.356   23.326
